Lig_COX2_5IKQ_Alig.pdb|Lig_COX2_5IKQ_Alig|sdf|1|dock1
  -GOLD-   6 62214543D 1   1.00000     0.00000

 29 30  0  0  0  0  0  0  0  0  2 V2000
    8.2523    1.3129    2.8499 N   0  0  0  0  0  0  0  0  0  0  0  0
    5.7998    1.2448    3.7949 O   0  0  0  0  0  0  0  0  0  0  0  0
    9.5715    3.6783    3.9080 Cl  0  0  0  0  0  0  0  0  0  0  0  0
    8.9782   -1.7215    3.2956 Cl  0  0  0  0  0  0  0  0  0  0  0  0
    4.2724    1.2807    2.2515 O   0  5  0  0  0  0  0  0  0  0  0  0
    6.3889    0.3188    1.6525 C   0  0  0  0  0  0  0  0  0  0  0  0
    9.3824    0.9837    3.6587 C   0  0  0  0  0  0  0  0  0  0  0  0
    7.7636    0.5001    1.7807 C   0  0  0  0  0  0  0  0  0  0  0  0
   10.0784    2.0439    4.2220 C   0  0  0  0  0  0  0  0  0  0  0  0
    8.6107   -0.1091    0.8688 C   0  0  0  0  0  0  0  0  0  0  0  0
   11.1801    1.8263    5.0317 C   0  0  0  0  0  0  0  0  0  0  0  0
    8.0957   -0.9029   -0.1454 C   0  0  0  0  0  0  0  0  0  0  0  0
   11.5931    0.5327    5.2966 C   0  0  0  0  0  0  0  0  0  0  0  0
    6.7258   -1.0769   -0.2691 C   0  0  0  0  0  0  0  0  0  0  0  0
   10.9029   -0.5350    4.7502 C   0  0  0  0  0  0  0  0  0  0  0  0
    5.8718   -0.4643    0.6286 C   0  0  0  0  0  0  0  0  0  0  0  0
    9.7972   -0.3219    3.9412 C   0  0  0  0  0  0  0  0  0  0  0  0
    5.4380    0.9910    2.6197 C   0  0  0  0  0  0  0  0  0  0  0  0
   11.9229    3.0068    5.6199 C   0  0  0  0  0  0  0  0  0  0  0  0
    7.7790    2.1547    3.0413 H   0  0  0  0  0  0  0  0  0  0  0  0
    9.6307    0.0286    0.9447 H   0  0  0  0  0  0  0  0  0  0  0  0
    8.7347   -1.3657   -0.8106 H   0  0  0  0  0  0  0  0  0  0  0  0
   12.4134    0.3646    5.8998 H   0  0  0  0  0  0  0  0  0  0  0  0
    6.3450   -1.6620   -1.0290 H   0  0  0  0  0  0  0  0  0  0  0  0
   11.2142   -1.4990    4.9466 H   0  0  0  0  0  0  0  0  0  0  0  0
    4.8513   -0.5886    0.5382 H   0  0  0  0  0  0  0  0  0  0  0  0
   11.2480    3.5986    6.2022 H   0  0  0  0  0  0  0  0  0  0  0  0
   12.3288    3.6026    4.8292 H   0  0  0  0  0  0  0  0  0  0  0  0
   12.7170    2.6535    6.2440 H   0  0  0  0  0  0  0  0  0  0  0  0
  1  7  1  0  0  0  0
  1 20  1  0  0  0  0
  2 18  2  0  0  0  0
  3  9  1  0  0  0  0
  4 17  1  0  0  0  0
  6  8  1  0  0  0  0
  6 18  1  0  0  0  0
  7 17  2  0  0  0  0
  7  9  1  0  0  0  0
  8  1  1  0  0  0  0
  9 11  2  0  0  0  0
 10  8  2  0  0  0  0
 10 21  1  0  0  0  0
 11 13  1  0  0  0  0
 11 19  1  0  0  0  0
 12 10  1  0  0  0  0
 12 22  1  0  0  0  0
 13 23  1  0  0  0  0
 14 12  2  0  0  0  0
 14 16  1  0  0  0  0
 14 24  1  0  0  0  0
 15 13  2  0  0  0  0
 15 25  1  0  0  0  0
 16  6  2  0  0  0  0
 16 26  1  0  0  0  0
 17 15  1  0  0  0  0
 18  5  1  0  0  0  0
 19 27  1  0  0  0  0
 19 28  1  0  0  0  0
 19 29  1  0  0  0  0
M  CHG  1   5  -1
M  END
> <Gold.Version>
5.8.1

> <Gold.Id.Protein>
ID_2|Prot_COX2_5IKQ_Alig|mol2

> <Gold.Goldscore.Fitness>
57.5109

> <Gold.Goldscore.Internal.Vdw>
-1.7636

> <Gold.Goldscore.Internal.Torsion>
-6.1465

> <Gold.Goldscore.External.Vdw>
40.2312

> <Gold.Goldscore.Internal.HBond>
0.0000

> <Gold.Goldscore.External.HBond>
2.6818

> <Gold.Goldscore.Internal.Correction>
-7.4212

> <Gold.Goldscore.Hbonds>
donor molecule, donor type, donor heavy atom, donor atom, acceptor molecule, acceptor atom, score
      P1  H  5703  5712       L1     5  0.29
      P1  H  8031  8036       L1     2  0.11
      L1  H     1    20       P1  8031  0.14

> <Gold.Goldscore.Internal.Vdw.Weighted>
-1.7636

> <Gold.Goldscore.Internal.Torsion.Weighted>
-6.1465

> <Gold.Goldscore.External.Vdw.Weighted>
55.3179

> <Gold.Goldscore.Internal.HBond.Weighted>
0.0000

> <Gold.Goldscore.External.HBond.Weighted>
2.6818

> <Gold.Goldscore.Internal.Correction.Weighted>
-7.4212

> <Gold.Protein.RotatedTorsions>
[ 5077 5068 5067 5065 ] final  168.58 input  179.94 | X-H torsion
[ 5157 5152 5151 5148 ] final -146.96 input -179.92 | X-H torsion
[ 5185 5176 5175 5173 ] final  126.53 input -179.99 | X-H torsion
[ 5712 5703 5702 5700 ] final  171.29 input  180.00 | X-H torsion
[ 8036 8031 8030 8027 ] final  168.62 input -179.94 | X-H torsion
[ 2749 2745 2743 2740 ] final   82.45 input  -60.05 | X-H torsion
[ 1366 1361 1360 1357 ] final  169.49 input  -60.09 | X-H torsion
[ 2556 2551 2550 2547 ] final   86.86 input   59.97 | X-H torsion

> <Gold.Protein.ActiveResidues>
 PRO86   VAL89   HIS90   LEU93   THR94   ILE112  MET113  TYR115  VAL116  LEU117 
 THR118  SER119  ARG120  SER121  LEU123  ILE124  GLN192  SER194  PHE198  PHE201 
 ALA202  GLN203  PHE205  THR206  PHE209  PHE210  VAL228  ILE341  ILE343  VAL344 
 ILE345  GLU346  ASP347  TYR348  VAL349  GLN350  HIS351  LEU352  SER353  GLY354 
 TYR355  PHE357  LEU359  LYS360  GLU380  PHE381  ASN382  THR383  LEU384  TYR385 
 HIS386  TRP387  LEU390  VAL434  LEU507  ARG513  ALA516  ILE517  PHE518  GLY519 
 GLU520  THR521  MET522  VAL523  GLU524  VAL525  GLY526  ALA527  PRO528  PHE529 
 SER530  LEU531  LYS532  GLY533  LEU534  MET535  COH609 

> <Gold.Protein.RotatedAtoms>
   18.8197    6.6895    2.7868 H   0  0  0  0  0  0  0  0  0  0  0  0  # atno 1366 bound_to 1361
    5.0972  -10.1514    7.0632 H   0  0  0  0  0  0  0  0  0  0  0  0  # atno 2556 bound_to 2551
   -3.8538    0.1748   -0.0547 H   0  0  0  0  0  0  0  0  0  0  0  0  # atno 2749 bound_to 2745
    1.8136   -1.4746    3.6808 H   0  0  0  0  0  0  0  0  0  0  0  0  # atno 5077 bound_to 5068
   11.9502   -1.3544    9.2561 H   0  0  0  0  0  0  0  0  0  0  0  0  # atno 5157 bound_to 5152
   15.0860   -0.0771    4.8608 H   0  0  0  0  0  0  0  0  0  0  0  0  # atno 5185 bound_to 5176
    2.8162    0.2267    2.3736 H   0  0  0  0  0  0  0  0  0  0  0  0  # atno 5712 bound_to 5703
    5.6326    3.6971    3.5016 H   0  0  0  0  0  0  0  0  0  0  0  0  # atno 8036 bound_to 8031
    0.4823   -1.9909    4.1523 LP  0  0  0  0  0  0  0  0  0  0  0  0  # atno 8267 bound_to 5068
    1.8303   -2.9120    4.1221 LP  0  0  0  0  0  0  0  0  0  0  0  0  # atno 8268 bound_to 5068
   13.0579   -2.3714    9.1942 LP  0  0  0  0  0  0  0  0  0  0  0  0  # atno 8279 bound_to 5152
   11.4831   -2.7835    9.3229 LP  0  0  0  0  0  0  0  0  0  0  0  0  # atno 8280 bound_to 5152
   15.9999   -1.2419    4.6024 LP  0  0  0  0  0  0  0  0  0  0  0  0  # atno 8281 bound_to 5176
   16.5410    0.2181    5.0945 LP  0  0  0  0  0  0  0  0  0  0  0  0  # atno 8282 bound_to 5176
    2.5652   -1.2208    2.6902 LP  0  0  0  0  0  0  0  0  0  0  0  0  # atno 8283 bound_to 5703
    1.4263   -0.0638    2.8659 LP  0  0  0  0  0  0  0  0  0  0  0  0  # atno 8284 bound_to 5703
    4.6654    4.8090    3.2048 LP  0  0  0  0  0  0  0  0  0  0  0  0  # atno 8309 bound_to 8031
    6.1885    5.0750    3.7303 LP  0  0  0  0  0  0  0  0  0  0  0  0  # atno 8310 bound_to 8031
   -3.8989   -0.0442    1.4331 LP  0  0  0  0  0  0  0  0  0  0  0  0  # atno 8323 bound_to 2745
   -2.6965   -0.6181    0.4888 LP  0  0  0  0  0  0  0  0  0  0  0  0  # atno 8324 bound_to 2745
   17.7652    7.1591    1.8216 LP  0  0  0  0  0  0  0  0  0  0  0  0  # atno 8335 bound_to 1361
   17.9196    7.7661    3.3297 LP  0  0  0  0  0  0  0  0  0  0  0  0  # atno 8336 bound_to 1361
    4.9568   -9.2932    8.2912 LP  0  0  0  0  0  0  0  0  0  0  0  0  # atno 8342 bound_to 2551
    4.4758   -8.8047    6.8090 LP  0  0  0  0  0  0  0  0  0  0  0  0  # atno 8343 bound_to 2551

