
102|LMW3_p|sdf|102|dock191
  -GOLD-   6 822 2153D 1   1.00000     0.00000

 81 84  0  0  0  0  0  0  0  0  2 V2000
   15.1837  -13.0045   12.8588 O   0  0  0  0  0  0  0  0  0  0  0  0
   14.1705  -12.3050   12.8669 C   0  0  0  0  0  0  0  0  0  0  0  0
   13.0891  -12.6661   13.8111 C   0  0  0  0  0  0  0  0  0  0  0  0
   14.0154  -11.0710   11.9756 C   0  0  2  0  0  0  0  0  0  0  0  0
   12.0949  -11.8209   14.1502 C   0  0  0  0  0  0  0  0  0  0  0  0
   12.6171  -10.4298   12.1041 C   0  0  0  0  0  0  0  0  0  0  0  0
   14.3516  -11.3889   10.4863 C   0  0  1  0  0  0  0  0  0  0  0  0
   12.0281  -10.4063   13.5418 C   0  0  1  0  0  0  0  0  0  0  0  0
   10.9955  -12.2538   15.1564 C   0  0  0  0  0  0  0  0  0  0  0  0
   11.9958   -9.9165   11.0122 C   0  0  0  0  0  0  0  0  0  0  0  0
   14.0963  -10.1033    9.6082 C   0  0  2  0  0  0  0  0  0  0  0  0
   15.8301  -11.6765   10.1762 C   0  0  0  0  0  0  0  0  0  0  0  0
   13.5221  -12.6374   10.0282 C   0  0  0  0  0  0  0  0  0  0  0  0
   10.5627   -9.8965   13.5555 C   0  0  0  0  0  0  0  0  0  0  0  0
   12.8959   -9.4273   14.3735 C   0  0  0  0  0  0  0  0  0  0  0  0
   10.3818  -11.0129   15.8640 C   0  0  1  0  0  0  0  0  0  0  0  0
   11.5585  -13.1779   16.2725 C   0  0  0  0  0  0  0  0  0  0  0  0
    9.9091  -13.0645   14.4130 C   0  0  0  0  0  0  0  0  0  0  0  0
   12.5786   -9.8434    9.6146 C   0  0  0  0  0  0  0  0  0  0  0  0
   14.7365  -10.5129    8.2418 C   0  0  2  0  0  0  0  0  0  0  0  0
   14.8060   -8.8240   10.1521 C   0  0  0  0  0  0  0  0  0  0  0  0
   15.9913  -11.3365    8.6818 C   0  0  2  0  0  0  0  0  0  0  0  0
    9.8564   -9.9448   14.9078 C   0  0  0  0  0  0  0  0  0  0  0  0
    9.3160  -11.3876   16.7408 O   0  0  0  0  0  0  0  0  0  0  0  0
   15.1183   -9.3962    7.2197 C   0  0  1  0  0  0  0  0  0  0  0  0
   16.0756  -12.5492    7.9414 O   0  0  0  0  0  0  0  0  0  0  0  0
   15.7862  -10.0293    6.0122 C   0  0  0  0  0  0  0  0  0  0  0  0
   13.9014   -8.5795    6.7466 C   0  0  0  0  0  0  0  0  0  0  0  0
   15.2726  -10.8055    5.2232 O   0  0  0  0  0  0  0  0  0  0  0  0
   17.0763   -9.6693    5.8824 O   0  5  0  0  0  0  0  0  0  0  0  0
   13.9362   -8.2356    5.2455 C   0  0  0  0  0  0  0  0  0  0  0  0
   13.0051   -7.1266    4.7746 C   0  0  0  0  0  0  0  0  0  0  0  0
   11.9567   -6.6748    5.4875 C   0  0  0  0  0  0  0  0  0  0  0  0
   13.2946   -6.5145    3.4027 C   0  0  0  0  0  0  0  0  0  0  0  0
   13.3393   -4.9849    3.4440 C   0  0  0  0  0  0  0  0  0  0  0  0
   12.3063   -6.9985    2.3386 C   0  0  0  0  0  0  0  0  0  0  0  0
   13.0965  -13.6093   14.2296 H   0  0  0  0  0  0  0  0  0  0  0  0
   14.7269  -10.3522   12.3250 H   0  0  0  0  0  0  0  0  0  0  0  0
   11.0429   -9.5431   11.1450 H   0  0  0  0  0  0  0  0  0  0  0  0
   16.0595  -12.7062   10.3555 H   0  0  0  0  0  0  0  0  0  0  0  0
   16.4913  -11.1058   10.7943 H   0  0  0  0  0  0  0  0  0  0  0  0
   12.4834  -12.4649   10.2185 H   0  0  0  0  0  0  0  0  0  0  0  0
   13.8459  -13.4999   10.5723 H   0  0  0  0  0  0  0  0  0  0  0  0
   13.6708  -12.7996    8.9811 H   0  0  0  0  0  0  0  0  0  0  0  0
   10.0003  -10.4949   12.8696 H   0  0  0  0  0  0  0  0  0  0  0  0
   10.6120   -8.8613   13.2897 H   0  0  0  0  0  0  0  0  0  0  0  0
   13.0477   -8.5255   13.8181 H   0  0  0  0  0  0  0  0  0  0  0  0
   13.8422   -9.8802   14.5840 H   0  0  0  0  0  0  0  0  0  0  0  0
   12.3966   -9.2006   15.2922 H   0  0  0  0  0  0  0  0  0  0  0  0
   11.1968  -10.5898   16.4133 H   0  0  0  0  0  0  0  0  0  0  0  0
   11.7432  -14.1518   15.8697 H   0  0  0  0  0  0  0  0  0  0  0  0
   10.8470  -13.2501   17.0684 H   0  0  0  0  0  0  0  0  0  0  0  0
   12.4729  -12.7679   16.6476 H   0  0  0  0  0  0  0  0  0  0  0  0
   10.3648  -13.8868   13.9021 H   0  0  0  0  0  0  0  0  0  0  0  0
    9.4157  -12.4332   13.7038 H   0  0  0  0  0  0  0  0  0  0  0  0
    9.1949  -13.4345   15.1186 H   0  0  0  0  0  0  0  0  0  0  0  0
   12.3933   -8.8689    9.2137 H   0  0  0  0  0  0  0  0  0  0  0  0
   12.1110  -10.6013    9.0215 H   0  0  0  0  0  0  0  0  0  0  0  0
   14.0011  -11.0331    7.6642 H   0  0  0  0  0  0  0  0  0  0  0  0
   14.6437   -8.0111    9.4755 H   0  0  0  0  0  0  0  0  0  0  0  0
   15.8560   -9.0094   10.2415 H   0  0  0  0  0  0  0  0  0  0  0  0
   14.4048   -8.5745   11.1121 H   0  0  0  0  0  0  0  0  0  0  0  0
   16.8785  -10.7649    8.5057 H   0  0  0  0  0  0  0  0  0  0  0  0
    8.8177  -10.1343   14.7348 H   0  0  0  0  0  0  0  0  0  0  0  0
   10.0395   -9.0015   15.3783 H   0  0  0  0  0  0  0  0  0  0  0  0
    8.9946  -10.6034   17.2125 H   0  0  0  0  0  0  0  0  0  0  0  0
   15.7830   -8.7236    7.7202 H   0  0  0  0  0  0  0  0  0  0  0  0
   16.2978  -12.3497    7.0185 H   0  0  0  0  0  0  0  0  0  0  0  0
   13.8704   -7.6658    7.3024 H   0  0  0  0  0  0  0  0  0  0  0  0
   13.0343   -9.1848    6.9100 H   0  0  0  0  0  0  0  0  0  0  0  0
   13.6829   -9.1230    4.7039 H   0  0  0  0  0  0  0  0  0  0  0  0
   14.9246   -7.8675    5.0649 H   0  0  0  0  0  0  0  0  0  0  0  0
   11.7503   -7.0791    6.4144 H   0  0  0  0  0  0  0  0  0  0  0  0
   11.3592   -5.9241    5.1074 H   0  0  0  0  0  0  0  0  0  0  0  0
   14.2699   -6.8570    3.1261 H   0  0  0  0  0  0  0  0  0  0  0  0
   13.8814   -4.6209    2.5963 H   0  0  0  0  0  0  0  0  0  0  0  0
   13.8258   -4.6664    4.3421 H   0  0  0  0  0  0  0  0  0  0  0  0
   12.3418   -4.5983    3.4223 H   0  0  0  0  0  0  0  0  0  0  0  0
   12.3606   -8.0641    2.2598 H   0  0  0  0  0  0  0  0  0  0  0  0
   12.5538   -6.5581    1.3954 H   0  0  0  0  0  0  0  0  0  0  0  0
   11.3138   -6.7115    2.6168 H   0  0  0  0  0  0  0  0  0  0  0  0
  1  2  2  0  0  0  0
  2  3  1  0  0  0  0
  2  4  1  0  0  0  0
  3  5  2  0  0  0  0
  3 37  1  0  0  0  0
  4  6  1  0  0  0  0
  4  7  1  0  0  0  0
  4 38  1  0  0  0  0
  5  8  1  0  0  0  0
  5  9  1  0  0  0  0
  6 10  2  0  0  0  0
  6  8  1  0  0  0  0
  7 11  1  0  0  0  0
  7 12  1  0  0  0  0
  7 13  1  0  0  0  0
  8 14  1  0  0  0  0
  8 15  1  0  0  0  0
  9 16  1  0  0  0  0
  9 17  1  0  0  0  0
  9 18  1  0  0  0  0
 10 19  1  0  0  0  0
 10 39  1  0  0  0  0
 11 20  1  0  0  0  0
 11 21  1  0  0  0  0
 11 19  1  0  0  0  0
 12 22  1  0  0  0  0
 12 40  1  0  0  0  0
 12 41  1  0  0  0  0
 13 42  1  0  0  0  0
 13 43  1  0  0  0  0
 13 44  1  0  0  0  0
 14 23  1  0  0  0  0
 14 45  1  0  0  0  0
 14 46  1  0  0  0  0
 15 47  1  0  0  0  0
 15 48  1  0  0  0  0
 15 49  1  0  0  0  0
 16 24  1  0  0  0  0
 16 23  1  0  0  0  0
 16 50  1  0  0  0  0
 17 51  1  0  0  0  0
 17 52  1  0  0  0  0
 17 53  1  0  0  0  0
 18 54  1  0  0  0  0
 18 55  1  0  0  0  0
 18 56  1  0  0  0  0
 19 57  1  0  0  0  0
 19 58  1  0  0  0  0
 20 25  1  0  0  0  0
 20 22  1  0  0  0  0
 20 59  1  0  0  0  0
 21 60  1  0  0  0  0
 21 61  1  0  0  0  0
 21 62  1  0  0  0  0
 22 26  1  0  0  0  0
 22 63  1  0  0  0  0
 23 64  1  0  0  0  0
 23 65  1  0  0  0  0
 24 66  1  0  0  0  0
 25 27  1  0  0  0  0
 25 28  1  0  0  0  0
 25 67  1  0  0  0  0
 26 68  1  0  0  0  0
 27 29  2  0  0  0  0
 27 30  1  0  0  0  0
 28 31  1  0  0  0  0
 28 69  1  0  0  0  0
 28 70  1  0  0  0  0
 31 32  1  0  0  0  0
 31 71  1  0  0  0  0
 31 72  1  0  0  0  0
 32 33  2  0  0  0  0
 32 34  1  0  0  0  0
 33 73  1  0  0  0  0
 33 74  1  0  0  0  0
 34 35  1  0  0  0  0
 34 36  1  0  0  0  0
 34 75  1  0  0  0  0
 35 76  1  0  0  0  0
 35 77  1  0  0  0  0
 35 78  1  0  0  0  0
 36 79  1  0  0  0  0
 36 80  1  0  0  0  0
 36 81  1  0  0  0  0
M  CHG  1  30  -1
M  END
>  <Code-name>
102

>  <Compound>
Piptolinic acid  F

>  <Specie>
Piptoporus betulinus

>  <Reference>
GrÃ¼ndemann (2020)

>  <Organism>
Cytotoxic Activity

>  <Smiles>
CC(C)C(CC[C@@H]([C@@H]([C@@H](C1)O)[C@@](C)(CC=C2[C@@](C)(CC[C@H](C3(C)C)O)C3=C3)[C@]1(C)[C@@H]2C3=O)C(O)=O)=C

>  <MMFF94 Energy>
128.36

>  <Total Molweight>
498.701

>  <Molweight>
498.701

>  <Monoisotopic Mass>
498.334525

>  <cLogP>
5.5944

>  <cLogS>
-5.28

>  <H-Acceptors>
5

>  <H-Donors>
3

>  <Total Surface Area>
371.24

>  <Relative PSA>
0.17611

>  <Polar Surface Area>
94.83

>  <Druglikeness>
-5.7195

>  <Mutagenic>
none

>  <Tumorigenic>
none

>  <Reproductive Effective>
none

>  <Irritant>
none

>  <Nasty Functions>


>  <Shape Index>
0.44444

>  <Molecular Flexibility>
0.35181

>  <Molecular Complexity>
1.032

>  <Fragments>
1

>  <Non-H Atoms>
36

>  <Non-C/H Atoms>
5

>  <Metal-Atoms>
0

>  <Electronegative Atoms>
5

>  <Stereo Centers>
8

>  <Rotatable Bonds>
6

>  <Rings Closures>
4

>  <Small Rings>
4

>  <Aromatic Rings>
0

>  <Aromatic Atoms>
0

>  <sp3-Atoms>
26

>  <Symmetric atoms>
2

>  <Amides>
0

>  <Amines>
0

>  <Alkyl-Amines>
0

>  <Aromatic Amines>
0

>  <Aromatic Nitrogens>
0

>  <Basic Nitrogens>
0

>  <Acidic Oxygens>
1

>  <Stereo Configuration>
this enantiomer

> <Gold.Version>
5.8.1

> <Gold.Id.Protein>
ID_2|Prot_COX2_5IKQ_Alig|mol2

> <Gold.Goldscore.Fitness>
29.6996

> <Gold.Goldscore.Internal.Vdw>
-18.9643

> <Gold.Goldscore.Internal.Torsion>
-7.1482

> <Gold.Goldscore.External.Vdw>
24.2251

> <Gold.Goldscore.Internal.HBond>
0.0000

> <Gold.Goldscore.External.HBond>
0.5571

> <Gold.Goldscore.Internal.Correction>
-21.9456

> <Gold.Goldscore.Hbonds>
donor molecule, donor type, donor heavy atom, donor atom, acceptor molecule, acceptor atom, score
      P1  H   854   861       L1    30  0.09

> <Gold.Goldscore.Internal.Vdw.Weighted>
-18.9643

> <Gold.Goldscore.Internal.Torsion.Weighted>
-7.1482

> <Gold.Goldscore.External.Vdw.Weighted>
33.3095

> <Gold.Goldscore.Internal.HBond.Weighted>
0.0000

> <Gold.Goldscore.External.HBond.Weighted>
0.5571

> <Gold.Goldscore.Internal.Correction.Weighted>
-21.9456

> <Gold.Protein.RotatedTorsions>
[ 5077 5068 5067 5065 ] final   74.97 input  179.94 | X-H torsion
[ 5157 5152 5151 5148 ] final  -42.84 input -179.92 | X-H torsion
[ 5185 5176 5175 5173 ] final   35.48 input -179.99 | X-H torsion
[ 5712 5703 5702 5700 ] final -131.93 input  180.00 | X-H torsion
[ 8036 8031 8030 8027 ] final  -79.85 input -179.94 | X-H torsion
[ 2749 2745 2743 2740 ] final   -2.55 input  -60.05 | X-H torsion
[ 1366 1361 1360 1357 ] final  -12.60 input  -60.09 | X-H torsion
[ 2556 2551 2550 2547 ] final  -61.88 input   59.97 | X-H torsion

> <Gold.Protein.ActiveResidues>
 PRO86   VAL89   HIS90   LEU93   THR94   ILE112  MET113  TYR115  VAL116  LEU117 
 THR118  SER119  ARG120  SER121  LEU123  ILE124  GLN192  SER194  PHE198  PHE201 
 ALA202  GLN203  PHE205  THR206  PHE209  PHE210  VAL228  ILE341  ILE343  VAL344 
 ILE345  GLU346  ASP347  TYR348  VAL349  GLN350  HIS351  LEU352  SER353  GLY354 
 TYR355  PHE357  LEU359  LYS360  GLU380  PHE381  ASN382  THR383  LEU384  TYR385 
 HIS386  TRP387  LEU390  VAL434  LEU507  ARG513  ALA516  ILE517  PHE518  GLY519 
 GLU520  THR521  MET522  VAL523  GLU524  VAL525  GLY526  ALA527  PRO528  PHE529 
 SER530  LEU531  LYS532  GLY533  LEU534  MET535  COH609 

> <Gold.Protein.RotatedAtoms>
   17.6367    7.7056    2.5302 H   0  0  0  0  0  0  0  0  0  0  0  0  # atno 1366 bound_to 1361
    4.7296   -9.0163    8.0085 H   0  0  0  0  0  0  0  0  0  0  0  0  # atno 2556 bound_to 2551
   -4.1034    0.1837    0.9829 H   0  0  0  0  0  0  0  0  0  0  0  0  # atno 2749 bound_to 2745
    0.7335   -1.6700    4.0269 H   0  0  0  0  0  0  0  0  0  0  0  0  # atno 5077 bound_to 5068
   11.4571   -2.4996    9.2842 H   0  0  0  0  0  0  0  0  0  0  0  0  # atno 5157 bound_to 5152
   15.5752   -1.0658    4.6420 H   0  0  0  0  0  0  0  0  0  0  0  0  # atno 5185 bound_to 5176
    2.1211    0.4467    2.5468 H   0  0  0  0  0  0  0  0  0  0  0  0  # atno 5712 bound_to 5703
    6.1533    4.8800    3.6731 H   0  0  0  0  0  0  0  0  0  0  0  0  # atno 8036 bound_to 8031
    1.4281   -2.9848    4.2510 LP  0  0  0  0  0  0  0  0  0  0  0  0  # atno 8267 bound_to 5068
    2.1779   -1.6840    3.6089 LP  0  0  0  0  0  0  0  0  0  0  0  0  # atno 8268 bound_to 5068
   12.1750   -1.1768    9.2835 LP  0  0  0  0  0  0  0  0  0  0  0  0  # atno 8279 bound_to 5152
   12.9558   -2.6085    9.2000 LP  0  0  0  0  0  0  0  0  0  0  0  0  # atno 8280 bound_to 5152
   16.7449   -0.1941    5.0033 LP  0  0  0  0  0  0  0  0  0  0  0  0  # atno 8281 bound_to 5176
   15.2086    0.3574    4.9563 LP  0  0  0  0  0  0  0  0  0  0  0  0  # atno 8282 bound_to 5176
    3.1760   -0.6173    2.4298 LP  0  0  0  0  0  0  0  0  0  0  0  0  # atno 8283 bound_to 5703
    1.6498   -0.9312    2.9183 LP  0  0  0  0  0  0  0  0  0  0  0  0  # atno 8284 bound_to 5703
    5.5092    3.5319    3.5066 LP  0  0  0  0  0  0  0  0  0  0  0  0  # atno 8309 bound_to 8031
    4.7200    4.9330    3.2228 LP  0  0  0  0  0  0  0  0  0  0  0  0  # atno 8310 bound_to 8031
   -2.8286   -0.6134    1.0380 LP  0  0  0  0  0  0  0  0  0  0  0  0  # atno 8323 bound_to 2745
   -3.4679   -0.0595   -0.3588 LP  0  0  0  0  0  0  0  0  0  0  0  0  # atno 8324 bound_to 2745
   18.6496    7.1392    3.4880 LP  0  0  0  0  0  0  0  0  0  0  0  0  # atno 8335 bound_to 1361
   18.4505    6.5706    1.9702 LP  0  0  0  0  0  0  0  0  0  0  0  0  # atno 8336 bound_to 1361
    4.5895   -9.1556    6.5168 LP  0  0  0  0  0  0  0  0  0  0  0  0  # atno 8342 bound_to 2551
    5.2829  -10.3004    7.4524 LP  0  0  0  0  0  0  0  0  0  0  0  0  # atno 8343 bound_to 2551

