
105|LMW3_p|sdf|105|dock3
  -GOLD-   6 82210 03D 1   1.00000     0.00000

 76 78  0  0  0  0  0  0  0  0  3 V2000
   12.3816    4.5435    6.5576 O   0  0  0  0  0  0  0  0  0  0  0  0
   13.0805    4.0485    5.6895 C   0  0  0  0  0  0  0  0  0  0  0  0
   13.3623    4.7353    4.5659 O   0  5  0  0  0  0  0  0  0  0  0  0
   13.6952    2.6648    5.6944 C   0  0  1  0  0  0  0  0  0  0  0  0
   13.2263    1.8306    4.4774 C   0  0  2  0  0  0  0  0  0  0  0  0
   15.2275    2.8162    5.8231 C   0  0  0  0  0  0  0  0  0  0  0  0
   11.7080    1.4975    4.3467 C   0  0  2  0  0  0  0  0  0  0  0  0
   13.8838    0.4222    4.4295 C   0  0  0  0  0  0  0  0  0  0  0  0
   15.8835    3.7306    4.7820 C   0  0  0  0  0  0  0  0  0  0  0  0
   11.7266    0.3476    3.2796 C   0  0  1  0  0  0  0  0  0  0  0  0
   10.7995    2.6190    3.8148 C   0  0  0  0  0  0  0  0  0  0  0  0
   11.1491    1.0353    5.7330 C   0  0  0  0  0  0  0  0  0  0  0  0
   12.8421   -0.5535    3.8455 C   0  0  0  0  0  0  0  0  0  0  0  0
   17.3470    3.4107    4.6367 C   0  0  0  0  0  0  0  0  0  0  0  0
   10.3202   -0.2254    3.1012 C   0  0  0  0  0  0  0  0  0  0  0  0
   12.1876    0.7807    1.8506 C   0  0  0  0  0  0  0  0  0  0  0  0
    9.4710    2.0650    3.3457 C   0  0  0  0  0  0  0  0  0  0  0  0
   18.1785    3.8031    3.6518 C   0  0  0  0  0  0  0  0  0  0  0  0
    9.2152    0.7637    3.0644 C   0  0  0  0  0  0  0  0  0  0  0  0
   10.0997   -1.5420    2.9408 C   0  0  0  0  0  0  0  0  0  0  0  0
   17.7971    4.6988    2.5052 C   0  0  0  0  0  0  0  0  0  0  0  0
   19.6180    3.3590    3.6389 C   0  0  0  0  0  0  0  0  0  0  0  0
    7.7814    0.2385    2.7603 C   0  0  2  0  0  0  0  0  0  0  0  0
    8.7654   -2.1347    2.6160 C   0  0  0  0  0  0  0  0  0  0  0  0
    7.8137   -1.1182    1.9459 C   0  0  2  0  0  0  0  0  0  0  0  0
    6.8800    1.3134    2.0529 C   0  0  0  0  0  0  0  0  0  0  0  0
    7.1438   -0.0418    4.1561 C   0  0  0  0  0  0  0  0  0  0  0  0
    8.0911   -1.0694    0.4291 C   0  0  0  0  0  0  0  0  0  0  0  0
    5.5010    0.8362    1.5801 C   0  0  0  0  0  0  0  0  0  0  0  0
    8.9829   -0.2661   -0.1752 C   0  0  0  0  0  0  0  0  0  0  0  0
    7.2646   -2.0200   -0.4044 C   0  0  0  0  0  0  0  0  0  0  0  0
    4.6408    0.4078    2.7401 C   0  0  0  0  0  0  0  0  0  0  0  0
    4.1911   -0.7016    2.9673 O   0  0  0  0  0  0  0  0  0  0  0  0
    4.3722    1.4367    3.5696 O   0  5  0  0  0  0  0  0  0  0  0  0
   13.3572    2.0998    6.5378 H   0  0  0  0  0  0  0  0  0  0  0  0
   13.5139    2.5046    3.6976 H   0  0  0  0  0  0  0  0  0  0  0  0
   15.6649    1.8439    5.7320 H   0  0  0  0  0  0  0  0  0  0  0  0
   15.4014    3.2761    6.7735 H   0  0  0  0  0  0  0  0  0  0  0  0
   14.1607    0.1142    5.4161 H   0  0  0  0  0  0  0  0  0  0  0  0
   14.7670    0.4380    3.8256 H   0  0  0  0  0  0  0  0  0  0  0  0
   15.7760    4.7490    5.0922 H   0  0  0  0  0  0  0  0  0  0  0  0
   15.4031    3.5763    3.8385 H   0  0  0  0  0  0  0  0  0  0  0  0
   11.2858    3.1036    2.9941 H   0  0  0  0  0  0  0  0  0  0  0  0
   10.6178    3.3149    4.6071 H   0  0  0  0  0  0  0  0  0  0  0  0
   10.2214    0.5215    5.5903 H   0  0  0  0  0  0  0  0  0  0  0  0
   10.9910    1.8902    6.3569 H   0  0  0  0  0  0  0  0  0  0  0  0
   11.8525    0.3782    6.2001 H   0  0  0  0  0  0  0  0  0  0  0  0
   12.4563   -1.1943    4.6106 H   0  0  0  0  0  0  0  0  0  0  0  0
   13.2634   -1.1908    3.0964 H   0  0  0  0  0  0  0  0  0  0  0  0
   17.7615    2.8229    5.3768 H   0  0  0  0  0  0  0  0  0  0  0  0
   12.1100   -0.0520    1.1831 H   0  0  0  0  0  0  0  0  0  0  0  0
   13.2038    1.1135    1.8892 H   0  0  0  0  0  0  0  0  0  0  0  0
   11.5645    1.5773    1.5009 H   0  0  0  0  0  0  0  0  0  0  0  0
    8.6943    2.7346    3.2304 H   0  0  0  0  0  0  0  0  0  0  0  0
   10.9010   -2.1834    3.0484 H   0  0  0  0  0  0  0  0  0  0  0  0
   18.6137    5.3507    2.2749 H   0  0  0  0  0  0  0  0  0  0  0  0
   16.9416    5.2812    2.7769 H   0  0  0  0  0  0  0  0  0  0  0  0
   17.5646    4.1018    1.6482 H   0  0  0  0  0  0  0  0  0  0  0  0
   20.2336    4.1548    3.2745 H   0  0  0  0  0  0  0  0  0  0  0  0
   19.7226    2.5064    3.0009 H   0  0  0  0  0  0  0  0  0  0  0  0
   19.9204    3.1003    4.6322 H   0  0  0  0  0  0  0  0  0  0  0  0
    8.3142   -2.4816    3.5221 H   0  0  0  0  0  0  0  0  0  0  0  0
    8.9249   -2.9355    1.9244 H   0  0  0  0  0  0  0  0  0  0  0  0
    6.7892   -1.4234    1.9922 H   0  0  0  0  0  0  0  0  0  0  0  0
    7.4120    1.6733    1.1972 H   0  0  0  0  0  0  0  0  0  0  0  0
    6.6858    2.0581    2.7964 H   0  0  0  0  0  0  0  0  0  0  0  0
    6.8376    0.8822    4.6003 H   0  0  0  0  0  0  0  0  0  0  0  0
    7.8633   -0.5199    4.7874 H   0  0  0  0  0  0  0  0  0  0  0  0
    6.2930   -0.6799    4.0379 H   0  0  0  0  0  0  0  0  0  0  0  0
    5.6283    0.0069    0.9161 H   0  0  0  0  0  0  0  0  0  0  0  0
    5.0153    1.6495    1.0825 H   0  0  0  0  0  0  0  0  0  0  0  0
    9.5523    0.3868    0.3856 H   0  0  0  0  0  0  0  0  0  0  0  0
    9.0984   -0.3021   -1.2001 H   0  0  0  0  0  0  0  0  0  0  0  0
    6.2253   -1.8141   -0.2549 H   0  0  0  0  0  0  0  0  0  0  0  0
    7.4745   -3.0272   -0.1103 H   0  0  0  0  0  0  0  0  0  0  0  0
    7.5084   -1.8923   -1.4384 H   0  0  0  0  0  0  0  0  0  0  0  0
  1  2  2  0  0  0  0
  2  3  1  0  0  0  0
  2  4  1  0  0  0  0
  4  5  1  0  0  0  0
  4  6  1  0  0  0  0
  4 35  1  0  0  0  0
  5  7  1  0  0  0  0
  5  8  1  0  0  0  0
  5 36  1  0  0  0  0
  6  9  1  0  0  0  0
  6 37  1  0  0  0  0
  6 38  1  0  0  0  0
  7 10  1  0  0  0  0
  7 11  1  0  0  0  0
  7 12  1  0  0  0  0
  8 13  1  0  0  0  0
  8 39  1  0  0  0  0
  8 40  1  0  0  0  0
  9 14  1  0  0  0  0
  9 41  1  0  0  0  0
  9 42  1  0  0  0  0
 10 15  1  0  0  0  0
 10 16  1  0  0  0  0
 10 13  1  0  0  0  0
 11 17  1  0  0  0  0
 11 43  1  0  0  0  0
 11 44  1  0  0  0  0
 12 45  1  0  0  0  0
 12 46  1  0  0  0  0
 12 47  1  0  0  0  0
 13 48  1  0  0  0  0
 13 49  1  0  0  0  0
 14 18  2  0  0  0  0
 14 50  1  0  0  0  0
 15 19  1  0  0  0  0
 15 20  2  0  0  0  0
 16 51  1  0  0  0  0
 16 52  1  0  0  0  0
 16 53  1  0  0  0  0
 17 19  2  0  0  0  0
 17 54  1  0  0  0  0
 18 21  1  0  0  0  0
 18 22  1  0  0  0  0
 19 23  1  0  0  0  0
 20 24  1  0  0  0  0
 20 55  1  0  0  0  0
 21 56  1  0  0  0  0
 21 57  1  0  0  0  0
 21 58  1  0  0  0  0
 22 59  1  0  0  0  0
 22 60  1  0  0  0  0
 22 61  1  0  0  0  0
 23 25  1  0  0  0  0
 23 26  1  0  0  0  0
 23 27  1  0  0  0  0
 24 25  1  0  0  0  0
 24 62  1  0  0  0  0
 24 63  1  0  0  0  0
 25 28  1  0  0  0  0
 25 64  1  0  0  0  0
 26 29  1  0  0  0  0
 26 65  1  0  0  0  0
 26 66  1  0  0  0  0
 27 67  1  0  0  0  0
 27 68  1  0  0  0  0
 27 69  1  0  0  0  0
 28 30  2  0  0  0  0
 28 31  1  0  0  0  0
 29 32  1  0  0  0  0
 29 70  1  0  0  0  0
 29 71  1  0  0  0  0
 30 72  1  0  0  0  0
 30 73  1  0  0  0  0
 31 74  1  0  0  0  0
 31 75  1  0  0  0  0
 31 76  1  0  0  0  0
 32 33  2  0  0  0  0
 32 34  1  0  0  0  0
M  CHG  1   3  -1
M  CHG  1  34  -1
M  END
>  <Code-name>
105

>  <Compound>
Piptolinic acid  I

>  <Specie>
Piptoporus betulinus

>  <Reference>
GrÃ¼ndemann (2020)

>  <Organism>
Cytotoxic Activity

>  <Smiles>
C[C@@](CC1)([C@](C)(CC=C2[C@@]3(C)CCC(O)=O)[C@H]1[C@@H](CCC=C(C)C)C(O)=O)C2=CC[C@@H]3C(C)=C

>  <MMFF94 Energy>
54.675

>  <Total Molweight>
468.675

>  <Molweight>
468.675

>  <Monoisotopic Mass>
468.323960

>  <cLogP>
7.2382

>  <cLogS>
-5.484

>  <H-Acceptors>
4

>  <H-Donors>
2

>  <Total Surface Area>
370.45

>  <Relative PSA>
0.14113

>  <Polar Surface Area>
74.6

>  <Druglikeness>
-21.25

>  <Mutagenic>
none

>  <Tumorigenic>
none

>  <Reproductive Effective>
none

>  <Irritant>
none

>  <Nasty Functions>


>  <Shape Index>
0.47059

>  <Molecular Flexibility>
0.42847

>  <Molecular Complexity>
0.99582

>  <Fragments>
1

>  <Non-H Atoms>
34

>  <Non-C/H Atoms>
4

>  <Metal-Atoms>
0

>  <Electronegative Atoms>
4

>  <Stereo Centers>
6

>  <Rotatable Bonds>
9

>  <Rings Closures>
3

>  <Small Rings>
3

>  <Aromatic Rings>
0

>  <Aromatic Atoms>
0

>  <sp3-Atoms>
22

>  <Symmetric atoms>
1

>  <Amides>
0

>  <Amines>
0

>  <Alkyl-Amines>
0

>  <Aromatic Amines>
0

>  <Aromatic Nitrogens>
0

>  <Basic Nitrogens>
0

>  <Acidic Oxygens>
2

>  <Stereo Configuration>
this enantiomer

> <Gold.Version>
5.8.1

> <Gold.Id.Protein>
ID_2|Prot_COX2_5IKQ_Alig|mol2

> <Gold.Goldscore.Fitness>
-2.0483

> <Gold.Goldscore.Internal.Vdw>
-18.2489

> <Gold.Goldscore.Internal.Torsion>
-8.2964

> <Gold.Goldscore.External.Vdw>
-2.2656

> <Gold.Goldscore.Internal.HBond>
0.0000

> <Gold.Goldscore.External.HBond>
8.2416

> <Gold.Goldscore.Internal.Correction>
-19.3704

> <Gold.Goldscore.Hbonds>
donor molecule, donor type, donor heavy atom, donor atom, acceptor molecule, acceptor atom, score
      P1  H  5068  5077       L1    33  0.44
      P1  H  8031  8036       L1    34  0.94

> <Gold.Goldscore.Internal.Vdw.Weighted>
-18.2489

> <Gold.Goldscore.Internal.Torsion.Weighted>
-8.2964

> <Gold.Goldscore.External.Vdw.Weighted>
-3.1152

> <Gold.Goldscore.Internal.HBond.Weighted>
0.0000

> <Gold.Goldscore.External.HBond.Weighted>
8.2416

> <Gold.Goldscore.Internal.Correction.Weighted>
-19.3704

> <Gold.Protein.RotatedTorsions>
[ 5077 5068 5067 5065 ] final -163.68 input  179.94 | X-H torsion
[ 5157 5152 5151 5148 ] final  172.97 input -179.92 | X-H torsion
[ 5185 5176 5175 5173 ] final  -67.03 input -179.99 | X-H torsion
[ 5712 5703 5702 5700 ] final  -86.00 input  180.00 | X-H torsion
[ 8036 8031 8030 8027 ] final  140.44 input -179.94 | X-H torsion
[ 2749 2745 2743 2740 ] final  -24.18 input  -60.05 | X-H torsion
[ 1366 1361 1360 1357 ] final  -57.50 input  -60.09 | X-H torsion
[ 2556 2551 2550 2547 ] final   -8.85 input   59.97 | X-H torsion

> <Gold.Protein.ActiveResidues>
 PRO86   VAL89   HIS90   LEU93   THR94   ILE112  MET113  TYR115  VAL116  LEU117 
 THR118  SER119  ARG120  SER121  LEU123  ILE124  GLN192  SER194  PHE198  PHE201 
 ALA202  GLN203  PHE205  THR206  PHE209  PHE210  VAL228  ILE341  ILE343  VAL344 
 ILE345  GLU346  ASP347  TYR348  VAL349  GLN350  HIS351  LEU352  SER353  GLY354 
 TYR355  PHE357  LEU359  LYS360  GLU380  PHE381  ASN382  THR383  LEU384  TYR385 
 HIS386  TRP387  LEU390  VAL434  LEU507  ARG513  ALA516  ILE517  PHE518  GLY519 
 GLU520  THR521  MET522  VAL523  GLU524  VAL525  GLY526  ALA527  PRO528  PHE529 
 SER530  LEU531  LYS532  GLY533  LEU534  MET535  COH609 

> <Gold.Protein.RotatedAtoms>
   17.8768    7.7501    3.0823 H   0  0  0  0  0  0  0  0  0  0  0  0  # atno 1366 bound_to 1361
    5.0393   -9.6411    8.1166 H   0  0  0  0  0  0  0  0  0  0  0  0  # atno 2556 bound_to 2551
   -3.9464    0.0637    1.2038 H   0  0  0  0  0  0  0  0  0  0  0  0  # atno 2749 bound_to 2745
    2.0704   -1.7509    3.7098 H   0  0  0  0  0  0  0  0  0  0  0  0  # atno 5077 bound_to 5068
   12.4876   -1.4056    9.2099 H   0  0  0  0  0  0  0  0  0  0  0  0  # atno 5157 bound_to 5152
   16.5999   -0.4624    4.9526 H   0  0  0  0  0  0  0  0  0  0  0  0  # atno 5185 bound_to 5176
    1.6450    0.1044    2.7323 H   0  0  0  0  0  0  0  0  0  0  0  0  # atno 5712 bound_to 5703
    5.2710    3.7287    3.3762 H   0  0  0  0  0  0  0  0  0  0  0  0  # atno 8036 bound_to 8031
    0.6006   -1.5886    3.9830 LP  0  0  0  0  0  0  0  0  0  0  0  0  # atno 8267 bound_to 5068
    1.4045   -2.9834    4.2566 LP  0  0  0  0  0  0  0  0  0  0  0  0  # atno 8268 bound_to 5068
   12.6833   -2.8978    9.2196 LP  0  0  0  0  0  0  0  0  0  0  0  0  # atno 8279 bound_to 5152
   11.2149   -2.1960    9.3528 LP  0  0  0  0  0  0  0  0  0  0  0  0  # atno 8280 bound_to 5152
   15.4455    0.4969    5.0281 LP  0  0  0  0  0  0  0  0  0  0  0  0  # atno 8281 bound_to 5176
   15.2776   -1.0581    4.5586 LP  0  0  0  0  0  0  0  0  0  0  0  0  # atno 8282 bound_to 5176
    3.0993    0.1110    2.3534 LP  0  0  0  0  0  0  0  0  0  0  0  0  # atno 8283 bound_to 5703
    2.2978   -1.2487    2.7721 LP  0  0  0  0  0  0  0  0  0  0  0  0  # atno 8284 bound_to 5703
    4.9141    5.1863    3.2881 LP  0  0  0  0  0  0  0  0  0  0  0  0  # atno 8309 bound_to 8031
    6.3735    4.6598    3.7974 LP  0  0  0  0  0  0  0  0  0  0  0  0  # atno 8310 bound_to 8031
   -2.7124   -0.6371    0.7044 LP  0  0  0  0  0  0  0  0  0  0  0  0  # atno 8323 bound_to 2745
   -3.7721    0.1079   -0.2898 LP  0  0  0  0  0  0  0  0  0  0  0  0  # atno 8324 bound_to 2745
   18.9071    6.6554    3.0203 LP  0  0  0  0  0  0  0  0  0  0  0  0  # atno 8335 bound_to 1361
   17.9057    7.0011    1.7776 LP  0  0  0  0  0  0  0  0  0  0  0  0  # atno 8336 bound_to 1361
    4.4563   -8.6329    7.1639 LP  0  0  0  0  0  0  0  0  0  0  0  0  # atno 8342 bound_to 2551
    5.0455  -10.0756    6.6760 LP  0  0  0  0  0  0  0  0  0  0  0  0  # atno 8343 bound_to 2551

