
106|LMW3_p|sdf|106|dock1
  -GOLD-   6 82210 13D 1   1.00000     0.00000

 76 78  0  0  0  0  0  0  0  0  3 V2000
   15.7910   -1.1639    3.4445 O   0  0  0  0  0  0  0  0  0  0  0  0
   15.9637   -0.0339    3.0198 C   0  0  0  0  0  0  0  0  0  0  0  0
   16.2639    0.1722    1.7236 O   0  5  0  0  0  0  0  0  0  0  0  0
   15.8966    1.2527    3.8138 C   0  0  1  0  0  0  0  0  0  0  0  0
   14.5411    1.3449    4.5599 C   0  0  2  0  0  0  0  0  0  0  0  0
   17.0948    1.2794    4.7879 C   0  0  0  0  0  0  0  0  0  0  0  0
   13.2457    0.9174    3.8059 C   0  0  2  0  0  0  0  0  0  0  0  0
   14.2026    2.7924    5.0159 C   0  0  0  0  0  0  0  0  0  0  0  0
   18.2047    2.2355    4.3340 C   0  0  0  0  0  0  0  0  0  0  0  0
   12.1278    1.5336    4.7178 C   0  0  1  0  0  0  0  0  0  0  0  0
   12.9840   -0.5939    3.6928 C   0  0  0  0  0  0  0  0  0  0  0  0
   13.2547    1.5204    2.3624 C   0  0  0  0  0  0  0  0  0  0  0  0
   12.6735    2.9614    4.9189 C   0  0  0  0  0  0  0  0  0  0  0  0
   18.7489    1.8351    2.9907 C   0  0  0  0  0  0  0  0  0  0  0  0
   10.7576    1.3388    4.0680 C   0  0  0  0  0  0  0  0  0  0  0  0
   12.0082    0.8975    6.1399 C   0  0  0  0  0  0  0  0  0  0  0  0
   11.5385   -0.8717    3.3414 C   0  0  0  0  0  0  0  0  0  0  0  0
   19.0995    2.6492    1.9760 C   0  0  0  0  0  0  0  0  0  0  0  0
   10.5118    0.0053    3.4675 C   0  0  0  0  0  0  0  0  0  0  0  0
    9.8205    2.3029    4.0637 C   0  0  0  0  0  0  0  0  0  0  0  0
   18.9605    4.1470    1.9853 C   0  0  0  0  0  0  0  0  0  0  0  0
   19.6648    2.0864    0.6984 C   0  0  0  0  0  0  0  0  0  0  0  0
    9.0821   -0.3073    2.9280 C   0  0  2  0  0  0  0  0  0  0  0  0
    8.4211    2.1026    3.5740 C   0  0  0  0  0  0  0  0  0  0  0  0
    8.0212    0.6162    3.6490 C   0  0  1  0  0  0  0  0  0  0  0  0
    8.6781   -1.8114    3.1057 C   0  0  0  0  0  0  0  0  0  0  0  0
    9.1524   -0.0383    1.4011 C   0  0  0  0  0  0  0  0  0  0  0  0
    6.5352    0.4384    3.3052 C   0  0  0  0  0  0  0  0  0  0  0  0
    9.0431   -2.7385    1.9395 C   0  0  0  0  0  0  0  0  0  0  0  0
    5.6594    0.0267    4.2414 C   0  0  0  0  0  0  0  0  0  0  0  0
    6.0294    0.7857    1.9319 C   0  0  0  0  0  0  0  0  0  0  0  0
    8.0340   -2.6398    0.8266 C   0  0  0  0  0  0  0  0  0  0  0  0
    6.8225   -2.5492    0.9240 O   0  0  0  0  0  0  0  0  0  0  0  0
    8.6223   -2.6487   -0.3865 O   0  5  0  0  0  0  0  0  0  0  0  0
   15.9564    2.1034    3.1677 H   0  0  0  0  0  0  0  0  0  0  0  0
   14.7448    0.6471    5.3451 H   0  0  0  0  0  0  0  0  0  0  0  0
   17.5010    0.2920    4.8582 H   0  0  0  0  0  0  0  0  0  0  0  0
   16.7351    1.6272    5.7337 H   0  0  0  0  0  0  0  0  0  0  0  0
   14.6898    3.5000    4.3780 H   0  0  0  0  0  0  0  0  0  0  0  0
   14.5383    2.9608    6.0178 H   0  0  0  0  0  0  0  0  0  0  0  0
   18.9977    2.2162    5.0520 H   0  0  0  0  0  0  0  0  0  0  0  0
   17.7932    3.2200    4.2541 H   0  0  0  0  0  0  0  0  0  0  0  0
   13.2116   -1.0590    4.6291 H   0  0  0  0  0  0  0  0  0  0  0  0
   13.6046   -0.9890    2.9158 H   0  0  0  0  0  0  0  0  0  0  0  0
   12.3187    1.3176    1.8853 H   0  0  0  0  0  0  0  0  0  0  0  0
   14.0472    1.0776    1.7959 H   0  0  0  0  0  0  0  0  0  0  0  0
   13.4045    2.5783    2.4188 H   0  0  0  0  0  0  0  0  0  0  0  0
   12.4156    3.5835    4.0875 H   0  0  0  0  0  0  0  0  0  0  0  0
   12.2643    3.4297    5.7897 H   0  0  0  0  0  0  0  0  0  0  0  0
   18.8671    0.8230    2.8276 H   0  0  0  0  0  0  0  0  0  0  0  0
   11.6838   -0.1182    6.0502 H   0  0  0  0  0  0  0  0  0  0  0  0
   11.2973    1.4491    6.7188 H   0  0  0  0  0  0  0  0  0  0  0  0
   12.9617    0.9258    6.6246 H   0  0  0  0  0  0  0  0  0  0  0  0
   11.3146   -1.8098    2.9741 H   0  0  0  0  0  0  0  0  0  0  0  0
   10.0818    3.2359    4.4191 H   0  0  0  0  0  0  0  0  0  0  0  0
   17.9458    4.4124    1.7731 H   0  0  0  0  0  0  0  0  0  0  0  0
   19.6026    4.5695    1.2409 H   0  0  0  0  0  0  0  0  0  0  0  0
   19.2340    4.5246    2.9483 H   0  0  0  0  0  0  0  0  0  0  0  0
   20.6959    2.3598    0.6138 H   0  0  0  0  0  0  0  0  0  0  0  0
   19.1220    2.4797   -0.1356 H   0  0  0  0  0  0  0  0  0  0  0  0
   19.5783    1.0200    0.7094 H   0  0  0  0  0  0  0  0  0  0  0  0
    8.3545    2.4328    2.5585 H   0  0  0  0  0  0  0  0  0  0  0  0
    7.7571    2.6676    4.1944 H   0  0  0  0  0  0  0  0  0  0  0  0
    8.0723    0.2515    4.6536 H   0  0  0  0  0  0  0  0  0  0  0  0
    7.6175   -1.8537    3.2401 H   0  0  0  0  0  0  0  0  0  0  0  0
    9.2357   -2.1665    3.9471 H   0  0  0  0  0  0  0  0  0  0  0  0
    8.2566   -0.3922    0.9350 H   0  0  0  0  0  0  0  0  0  0  0  0
    9.9960   -0.5502    0.9874 H   0  0  0  0  0  0  0  0  0  0  0  0
    9.2531    1.0128    1.2284 H   0  0  0  0  0  0  0  0  0  0  0  0
    9.0745   -3.7479    2.2932 H   0  0  0  0  0  0  0  0  0  0  0  0
    9.9976   -2.4416    1.5577 H   0  0  0  0  0  0  0  0  0  0  0  0
    5.9917   -0.2151    5.1880 H   0  0  0  0  0  0  0  0  0  0  0  0
    4.6560   -0.0472    4.0122 H   0  0  0  0  0  0  0  0  0  0  0  0
    5.1038    1.3159    2.0162 H   0  0  0  0  0  0  0  0  0  0  0  0
    5.8762   -0.1124    1.3706 H   0  0  0  0  0  0  0  0  0  0  0  0
    6.7484    1.4004    1.4318 H   0  0  0  0  0  0  0  0  0  0  0  0
  1  2  2  0  0  0  0
  2  3  1  0  0  0  0
  2  4  1  0  0  0  0
  4  5  1  0  0  0  0
  4  6  1  0  0  0  0
  4 35  1  0  0  0  0
  5  7  1  0  0  0  0
  5  8  1  0  0  0  0
  5 36  1  0  0  0  0
  6  9  1  0  0  0  0
  6 37  1  0  0  0  0
  6 38  1  0  0  0  0
  7 10  1  0  0  0  0
  7 11  1  0  0  0  0
  7 12  1  0  0  0  0
  8 13  1  0  0  0  0
  8 39  1  0  0  0  0
  8 40  1  0  0  0  0
  9 14  1  0  0  0  0
  9 41  1  0  0  0  0
  9 42  1  0  0  0  0
 10 15  1  0  0  0  0
 10 16  1  0  0  0  0
 10 13  1  0  0  0  0
 11 17  1  0  0  0  0
 11 43  1  0  0  0  0
 11 44  1  0  0  0  0
 12 45  1  0  0  0  0
 12 46  1  0  0  0  0
 12 47  1  0  0  0  0
 13 48  1  0  0  0  0
 13 49  1  0  0  0  0
 14 18  2  0  0  0  0
 14 50  1  0  0  0  0
 15 19  1  0  0  0  0
 15 20  2  0  0  0  0
 16 51  1  0  0  0  0
 16 52  1  0  0  0  0
 16 53  1  0  0  0  0
 17 19  2  0  0  0  0
 17 54  1  0  0  0  0
 18 21  1  0  0  0  0
 18 22  1  0  0  0  0
 19 23  1  0  0  0  0
 20 24  1  0  0  0  0
 20 55  1  0  0  0  0
 21 56  1  0  0  0  0
 21 57  1  0  0  0  0
 21 58  1  0  0  0  0
 22 59  1  0  0  0  0
 22 60  1  0  0  0  0
 22 61  1  0  0  0  0
 23 25  1  0  0  0  0
 23 26  1  0  0  0  0
 23 27  1  0  0  0  0
 24 25  1  0  0  0  0
 24 62  1  0  0  0  0
 24 63  1  0  0  0  0
 25 28  1  0  0  0  0
 25 64  1  0  0  0  0
 26 29  1  0  0  0  0
 26 65  1  0  0  0  0
 26 66  1  0  0  0  0
 27 67  1  0  0  0  0
 27 68  1  0  0  0  0
 27 69  1  0  0  0  0
 28 30  2  0  0  0  0
 28 31  1  0  0  0  0
 29 32  1  0  0  0  0
 29 70  1  0  0  0  0
 29 71  1  0  0  0  0
 30 72  1  0  0  0  0
 30 73  1  0  0  0  0
 31 74  1  0  0  0  0
 31 75  1  0  0  0  0
 31 76  1  0  0  0  0
 32 33  2  0  0  0  0
 32 34  1  0  0  0  0
M  CHG  1   3  -1
M  CHG  1  34  -1
M  END
>  <Code-name>
106

>  <Compound>
Piptolinic acid  J

>  <Specie>
Piptoporus betulinus

>  <Reference>
GrÃ¼ndemann (2020)

>  <Organism>
Cytotoxic Activity

>  <Smiles>
C[C@@](CC1)([C@](C)(CC=C2[C@@]3(C)CCC(O)=O)[C@H]1[C@@H](CCC=C(C)C)C(O)=O)C2=CC[C@H]3C(C)=C

>  <MMFF94 Energy>
53.139

>  <Total Molweight>
468.675

>  <Molweight>
468.675

>  <Monoisotopic Mass>
468.323960

>  <cLogP>
7.2382

>  <cLogS>
-5.484

>  <H-Acceptors>
4

>  <H-Donors>
2

>  <Total Surface Area>
370.45

>  <Relative PSA>
0.14113

>  <Polar Surface Area>
74.6

>  <Druglikeness>
-21.25

>  <Mutagenic>
none

>  <Tumorigenic>
none

>  <Reproductive Effective>
none

>  <Irritant>
none

>  <Nasty Functions>


>  <Shape Index>
0.47059

>  <Molecular Flexibility>
0.43003

>  <Molecular Complexity>
0.99582

>  <Fragments>
1

>  <Non-H Atoms>
34

>  <Non-C/H Atoms>
4

>  <Metal-Atoms>
0

>  <Electronegative Atoms>
4

>  <Stereo Centers>
6

>  <Rotatable Bonds>
9

>  <Rings Closures>
3

>  <Small Rings>
3

>  <Aromatic Rings>
0

>  <Aromatic Atoms>
0

>  <sp3-Atoms>
22

>  <Symmetric atoms>
1

>  <Amides>
0

>  <Amines>
0

>  <Alkyl-Amines>
0

>  <Aromatic Amines>
0

>  <Aromatic Nitrogens>
0

>  <Basic Nitrogens>
0

>  <Acidic Oxygens>
2

>  <Stereo Configuration>
this enantiomer

> <Gold.Version>
5.8.1

> <Gold.Id.Protein>
ID_2|Prot_COX2_5IKQ_Alig|mol2

> <Gold.Goldscore.Fitness>
-12.1371

> <Gold.Goldscore.Internal.Vdw>
-29.0839

> <Gold.Goldscore.Internal.Torsion>
-11.6864

> <Gold.Goldscore.External.Vdw>
-0.0337

> <Gold.Goldscore.Internal.HBond>
0.0000

> <Gold.Goldscore.External.HBond>
0.8176

> <Gold.Goldscore.Internal.Correction>
-27.8619

> <Gold.Goldscore.Hbonds>
donor molecule, donor type, donor heavy atom, donor atom, acceptor molecule, acceptor atom, score
      P1  H  1377  1390       L1     3  0.07
      P1  H  5176  5185       L1     1  0.02

> <Gold.Goldscore.Internal.Vdw.Weighted>
-29.0839

> <Gold.Goldscore.Internal.Torsion.Weighted>
-11.6864

> <Gold.Goldscore.External.Vdw.Weighted>
-0.0463

> <Gold.Goldscore.Internal.HBond.Weighted>
0.0000

> <Gold.Goldscore.External.HBond.Weighted>
0.8176

> <Gold.Goldscore.Internal.Correction.Weighted>
-27.8619

> <Gold.Protein.RotatedTorsions>
[ 5077 5068 5067 5065 ] final  168.46 input  179.94 | X-H torsion
[ 5157 5152 5151 5148 ] final -132.43 input -179.92 | X-H torsion
[ 5185 5176 5175 5173 ] final   13.10 input -179.99 | X-H torsion
[ 5712 5703 5702 5700 ] final -173.65 input  180.00 | X-H torsion
[ 8036 8031 8030 8027 ] final  154.16 input -179.94 | X-H torsion
[ 2749 2745 2743 2740 ] final  -89.04 input  -60.05 | X-H torsion
[ 1366 1361 1360 1357 ] final  -20.44 input  -60.09 | X-H torsion
[ 2556 2551 2550 2547 ] final -159.61 input   59.97 | X-H torsion

> <Gold.Protein.ActiveResidues>
 PRO86   VAL89   HIS90   LEU93   THR94   ILE112  MET113  TYR115  VAL116  LEU117 
 THR118  SER119  ARG120  SER121  LEU123  ILE124  GLN192  SER194  PHE198  PHE201 
 ALA202  GLN203  PHE205  THR206  PHE209  PHE210  VAL228  ILE341  ILE343  VAL344 
 ILE345  GLU346  ASP347  TYR348  VAL349  GLN350  HIS351  LEU352  SER353  GLY354 
 TYR355  PHE357  LEU359  LYS360  GLU380  PHE381  ASN382  THR383  LEU384  TYR385 
 HIS386  TRP387  LEU390  VAL434  LEU507  ARG513  ALA516  ILE517  PHE518  GLY519 
 GLU520  THR521  MET522  VAL523  GLU524  VAL525  GLY526  ALA527  PRO528  PHE529 
 SER530  LEU531  LYS532  GLY533  LEU534  MET535  COH609 

> <Gold.Protein.RotatedAtoms>
   17.6553    7.7383    2.6315 H   0  0  0  0  0  0  0  0  0  0  0  0  # atno 1366 bound_to 1361
    4.5153   -8.9858    6.8378 H   0  0  0  0  0  0  0  0  0  0  0  0  # atno 2556 bound_to 2551
   -3.2213   -0.3673    1.2825 H   0  0  0  0  0  0  0  0  0  0  0  0  # atno 2749 bound_to 2745
    1.8123   -1.4736    3.6808 H   0  0  0  0  0  0  0  0  0  0  0  0  # atno 5077 bound_to 5068
   11.7653   -1.4289    9.2709 H   0  0  0  0  0  0  0  0  0  0  0  0  # atno 5157 bound_to 5152
   15.8760   -1.1137    4.6685 H   0  0  0  0  0  0  0  0  0  0  0  0  # atno 5185 bound_to 5176
    2.6555    0.3531    2.4034 H   0  0  0  0  0  0  0  0  0  0  0  0  # atno 5712 bound_to 5703
    5.4451    3.6897    3.4368 H   0  0  0  0  0  0  0  0  0  0  0  0  # atno 8036 bound_to 8031
    0.4822   -1.9927    4.1530 LP  0  0  0  0  0  0  0  0  0  0  0  0  # atno 8267 bound_to 5068
    1.8320   -2.9113    4.1214 LP  0  0  0  0  0  0  0  0  0  0  0  0  # atno 8268 bound_to 5068
   13.0920   -2.1352    9.1941 LP  0  0  0  0  0  0  0  0  0  0  0  0  # atno 8279 bound_to 5152
   11.6701   -2.9305    9.3053 LP  0  0  0  0  0  0  0  0  0  0  0  0  # atno 8280 bound_to 5152
   16.6041    0.1353    5.0791 LP  0  0  0  0  0  0  0  0  0  0  0  0  # atno 8281 bound_to 5176
   14.9882    0.0855    4.8486 LP  0  0  0  0  0  0  0  0  0  0  0  0  # atno 8282 bound_to 5176
    2.7822   -1.1295    2.6144 LP  0  0  0  0  0  0  0  0  0  0  0  0  # atno 8283 bound_to 5703
    1.4022   -0.3066    2.9059 LP  0  0  0  0  0  0  0  0  0  0  0  0  # atno 8284 bound_to 5703
    4.7710    5.0188    3.2398 LP  0  0  0  0  0  0  0  0  0  0  0  0  # atno 8309 bound_to 8031
    6.3077    4.8741    3.7730 LP  0  0  0  0  0  0  0  0  0  0  0  0  # atno 8310 bound_to 8031
   -3.0266   -0.3352   -0.2090 LP  0  0  0  0  0  0  0  0  0  0  0  0  # atno 8323 bound_to 2745
   -4.3263    0.3221    0.5294 LP  0  0  0  0  0  0  0  0  0  0  0  0  # atno 8324 bound_to 2745
   18.7206    7.0447    3.4366 LP  0  0  0  0  0  0  0  0  0  0  0  0  # atno 8335 bound_to 1361
   18.3571    6.6260    1.9006 LP  0  0  0  0  0  0  0  0  0  0  0  0  # atno 8336 bound_to 1361
    5.2178  -10.2911    7.0964 LP  0  0  0  0  0  0  0  0  0  0  0  0  # atno 8342 bound_to 2551
    4.9110   -9.2015    8.2734 LP  0  0  0  0  0  0  0  0  0  0  0  0  # atno 8343 bound_to 2551

