
107|LMW3_p|sdf|107|dock3
  -GOLD-   6 82210 43D 1   1.00000     0.00000

 92 96  0  0  0  0  0  0  0  0  2 V2000
   14.1704   -6.6610    3.2146 O   0  0  0  0  0  0  0  0  0  0  0  0
   13.1349   -6.5173    3.8658 C   0  0  0  0  0  0  0  0  0  0  0  0
   12.7508   -7.4643    5.0512 C   0  0  2  0  0  0  0  0  0  0  0  0
   12.1283   -5.4439    3.4287 C   0  0  1  0  0  0  0  0  0  0  0  0
   13.9856   -8.2467    5.7660 C   0  0  2  0  0  0  0  0  0  0  0  0
   11.8889   -8.6818    4.5344 C   0  0  1  0  0  0  0  0  0  0  0  0
   11.8848   -6.6744    6.1055 C   0  0  0  0  0  0  0  0  0  0  0  0
   11.6931   -4.5845    4.6652 C   0  0  2  0  0  0  0  0  0  0  0  0
   12.6933   -4.3705    2.4930 C   0  0  0  0  0  0  0  0  0  0  0  0
   10.9949   -6.1432    2.6297 C   0  0  0  0  0  0  0  0  0  0  0  0
   13.2147   -9.4257    6.4299 C   0  0  1  0  0  0  0  0  0  0  0  0
   14.7627   -7.5071    6.8814 C   0  0  0  0  0  0  0  0  0  0  0  0
   15.0394   -8.7320    4.7314 C   0  0  0  0  0  0  0  0  0  0  0  0
   11.9844   -8.9347    3.1400 O   0  0  0  0  0  0  0  0  0  0  0  0
   12.3399   -9.9485    5.2964 C   0  0  0  0  0  0  0  0  0  0  0  0
   10.9406   -5.5616    5.5975 C   0  0  2  0  0  0  0  0  0  0  0  0
   10.8881   -3.4352    3.9593 C   0  0  2  0  0  0  0  0  0  0  0  0
   12.9064   -3.9456    5.4131 C   0  0  0  0  0  0  0  0  0  0  0  0
   11.7342   -3.1844    2.6650 C   0  0  0  0  0  0  0  0  0  0  0  0
   14.0051  -10.4323    7.3185 C   0  0  0  0  0  0  0  0  0  0  0  0
   15.6487   -8.4593    7.7116 C   0  0  0  0  0  0  0  0  0  0  0  0
   10.3808   -4.9278    6.7401 O   0  0  0  0  0  0  0  0  0  0  0  0
   10.5985   -2.0769    4.6708 C   0  0  1  0  0  0  0  0  0  0  0  0
   14.8460   -9.6105    8.3554 C   0  0  1  0  0  0  0  0  0  0  0  0
   12.9730  -11.3186    8.0692 C   0  0  0  0  0  0  0  0  0  0  0  0
   14.9237  -11.4166    6.5671 C   0  0  0  0  0  0  0  0  0  0  0  0
   10.1325   -0.9456    3.7008 C   0  0  0  0  0  0  0  0  0  0  0  0
    9.6077   -2.1715    5.8313 C   0  0  0  0  0  0  0  0  0  0  0  0
   13.9382   -9.0226    9.3212 O   0  0  0  0  0  0  0  0  0  0  0  0
    8.9140   -1.2645    2.8175 C   0  0  2  0  0  0  0  0  0  0  0  0
   13.8533   -9.6383   10.5331 C   0  0  0  0  0  0  0  0  0  0  0  0
    9.3249   -1.4256    1.4579 O   0  0  0  0  0  0  0  0  0  0  0  0
    7.9239   -0.1499    2.7504 C   0  0  0  0  0  0  0  0  0  0  0  0
   14.2634  -10.7630   10.7865 O   0  0  0  0  0  0  0  0  0  0  0  0
   13.2310   -8.7283   11.5423 C   0  0  0  0  0  0  0  0  0  0  0  0
    8.7213   -0.4934    0.6756 C   0  0  0  0  0  0  0  0  0  0  0  0
    7.8107    0.3090    1.5014 C   0  0  0  0  0  0  0  0  0  0  0  0
    7.1801    0.2909    3.9628 C   0  0  0  0  0  0  0  0  0  0  0  0
   12.4366   -9.4594   12.5705 C   0  0  0  0  0  0  0  0  0  0  0  0
    8.9006   -0.3526   -0.5201 O   0  0  0  0  0  0  0  0  0  0  0  0
    6.9831    1.3808    0.9028 C   0  0  0  0  0  0  0  0  0  0  0  0
   12.1893   -9.1124   13.7118 O   0  0  0  0  0  0  0  0  0  0  0  0
   11.9521  -10.6267   12.0958 O   0  5  0  0  0  0  0  0  0  0  0  0
   10.8661   -8.4259    4.7166 H   0  0  0  0  0  0  0  0  0  0  0  0
   12.5643   -6.2212    6.7967 H   0  0  0  0  0  0  0  0  0  0  0  0
   11.2252   -7.4137    6.5098 H   0  0  0  0  0  0  0  0  0  0  0  0
   12.6963   -4.7131    1.4793 H   0  0  0  0  0  0  0  0  0  0  0  0
   13.7071   -4.1166    2.7227 H   0  0  0  0  0  0  0  0  0  0  0  0
   10.5134   -6.8673    3.2532 H   0  0  0  0  0  0  0  0  0  0  0  0
   11.4110   -6.6306    1.7728 H   0  0  0  0  0  0  0  0  0  0  0  0
   10.2794   -5.4135    2.3126 H   0  0  0  0  0  0  0  0  0  0  0  0
   12.6214   -9.1045    7.2603 H   0  0  0  0  0  0  0  0  0  0  0  0
   14.0594   -7.0349    7.5350 H   0  0  0  0  0  0  0  0  0  0  0  0
   15.4042   -6.7907    6.4121 H   0  0  0  0  0  0  0  0  0  0  0  0
   14.5459   -9.0122    3.8243 H   0  0  0  0  0  0  0  0  0  0  0  0
   15.5651   -9.5759    5.1268 H   0  0  0  0  0  0  0  0  0  0  0  0
   15.7325   -7.9420    4.5309 H   0  0  0  0  0  0  0  0  0  0  0  0
   11.1031   -8.8743    2.7394 H   0  0  0  0  0  0  0  0  0  0  0  0
   12.9004  -10.5956    4.6546 H   0  0  0  0  0  0  0  0  0  0  0  0
   11.5111  -10.5221    5.6555 H   0  0  0  0  0  0  0  0  0  0  0  0
   10.1484   -5.9642    5.0015 H   0  0  0  0  0  0  0  0  0  0  0  0
    9.8802   -3.7827    3.8673 H   0  0  0  0  0  0  0  0  0  0  0  0
   12.5836   -3.5718    6.3623 H   0  0  0  0  0  0  0  0  0  0  0  0
   13.3022   -3.1413    4.8289 H   0  0  0  0  0  0  0  0  0  0  0  0
   13.6646   -4.6861    5.5605 H   0  0  0  0  0  0  0  0  0  0  0  0
   11.0875   -3.1133    1.8156 H   0  0  0  0  0  0  0  0  0  0  0  0
   12.2830   -2.2697    2.7491 H   0  0  0  0  0  0  0  0  0  0  0  0
   16.1223   -7.8961    8.4883 H   0  0  0  0  0  0  0  0  0  0  0  0
   16.3643   -8.8964    7.0471 H   0  0  0  0  0  0  0  0  0  0  0  0
    9.7848   -5.5449    7.1927 H   0  0  0  0  0  0  0  0  0  0  0  0
   11.5558   -1.8156    5.0711 H   0  0  0  0  0  0  0  0  0  0  0  0
   15.5421  -10.2895    8.8019 H   0  0  0  0  0  0  0  0  0  0  0  0
   12.3696  -11.8434    7.3583 H   0  0  0  0  0  0  0  0  0  0  0  0
   12.3485  -10.6999    8.6793 H   0  0  0  0  0  0  0  0  0  0  0  0
   13.4901  -12.0228    8.6870 H   0  0  0  0  0  0  0  0  0  0  0  0
   14.8685  -12.3798    7.0297 H   0  0  0  0  0  0  0  0  0  0  0  0
   15.9323  -11.0611    6.6027 H   0  0  0  0  0  0  0  0  0  0  0  0
   14.6078  -11.4918    5.5476 H   0  0  0  0  0  0  0  0  0  0  0  0
   10.9523   -0.7128    3.0538 H   0  0  0  0  0  0  0  0  0  0  0  0
    9.8244   -0.1379    4.3313 H   0  0  0  0  0  0  0  0  0  0  0  0
    8.7315   -2.6951    5.5104 H   0  0  0  0  0  0  0  0  0  0  0  0
    9.3376   -1.1866    6.1508 H   0  0  0  0  0  0  0  0  0  0  0  0
   10.0604   -2.6988    6.6448 H   0  0  0  0  0  0  0  0  0  0  0  0
    8.4814   -2.1394    3.2561 H   0  0  0  0  0  0  0  0  0  0  0  0
   12.5840   -8.0451   11.0329 H   0  0  0  0  0  0  0  0  0  0  0  0
   14.0247   -8.2213   12.0502 H   0  0  0  0  0  0  0  0  0  0  0  0
    7.5989   -0.1782    4.8285 H   0  0  0  0  0  0  0  0  0  0  0  0
    6.1507    0.0141    3.8700 H   0  0  0  0  0  0  0  0  0  0  0  0
    7.2562    1.3537    4.0612 H   0  0  0  0  0  0  0  0  0  0  0  0
    6.5377    1.0241   -0.0023 H   0  0  0  0  0  0  0  0  0  0  0  0
    7.5991    2.2287    0.6872 H   0  0  0  0  0  0  0  0  0  0  0  0
    6.2144    1.6643    1.5911 H   0  0  0  0  0  0  0  0  0  0  0  0
  1  2  2  0  0  0  0
  2  4  1  0  0  0  0
  3  2  1  0  0  0  0
  3  5  1  0  0  0  0
  3  6  1  0  0  0  0
  3  7  1  0  0  0  0
  4  8  1  0  0  0  0
  4  9  1  0  0  0  0
  4 10  1  0  0  0  0
  5 11  1  0  0  0  0
  5 12  1  0  0  0  0
  5 13  1  0  0  0  0
  6 14  1  0  0  0  0
  6 15  1  0  0  0  0
  6 44  1  0  0  0  0
  7 16  1  0  0  0  0
  7 45  1  0  0  0  0
  7 46  1  0  0  0  0
  8 17  1  0  0  0  0
  8 18  1  0  0  0  0
  8 16  1  0  0  0  0
  9 19  1  0  0  0  0
  9 47  1  0  0  0  0
  9 48  1  0  0  0  0
 10 49  1  0  0  0  0
 10 50  1  0  0  0  0
 10 51  1  0  0  0  0
 11 20  1  0  0  0  0
 11 15  1  0  0  0  0
 11 52  1  0  0  0  0
 12 21  1  0  0  0  0
 12 53  1  0  0  0  0
 12 54  1  0  0  0  0
 13 55  1  0  0  0  0
 13 56  1  0  0  0  0
 13 57  1  0  0  0  0
 14 58  1  0  0  0  0
 15 59  1  0  0  0  0
 15 60  1  0  0  0  0
 16 22  1  0  0  0  0
 16 61  1  0  0  0  0
 17 23  1  0  0  0  0
 17 19  1  0  0  0  0
 17 62  1  0  0  0  0
 18 63  1  0  0  0  0
 18 64  1  0  0  0  0
 18 65  1  0  0  0  0
 19 66  1  0  0  0  0
 19 67  1  0  0  0  0
 20 24  1  0  0  0  0
 20 25  1  0  0  0  0
 20 26  1  0  0  0  0
 21 24  1  0  0  0  0
 21 68  1  0  0  0  0
 21 69  1  0  0  0  0
 22 70  1  0  0  0  0
 23 27  1  0  0  0  0
 23 28  1  0  0  0  0
 23 71  1  0  0  0  0
 24 29  1  0  0  0  0
 24 72  1  0  0  0  0
 25 73  1  0  0  0  0
 25 74  1  0  0  0  0
 25 75  1  0  0  0  0
 26 76  1  0  0  0  0
 26 77  1  0  0  0  0
 26 78  1  0  0  0  0
 27 30  1  0  0  0  0
 27 79  1  0  0  0  0
 27 80  1  0  0  0  0
 28 81  1  0  0  0  0
 28 82  1  0  0  0  0
 28 83  1  0  0  0  0
 29 31  1  0  0  0  0
 30 32  1  0  0  0  0
 30 33  1  0  0  0  0
 30 84  1  0  0  0  0
 31 34  2  0  0  0  0
 31 35  1  0  0  0  0
 32 36  1  0  0  0  0
 33 37  2  0  0  0  0
 33 38  1  0  0  0  0
 35 39  1  0  0  0  0
 35 85  1  0  0  0  0
 35 86  1  0  0  0  0
 36 40  2  0  0  0  0
 36 37  1  0  0  0  0
 37 41  1  0  0  0  0
 38 87  1  0  0  0  0
 38 88  1  0  0  0  0
 38 89  1  0  0  0  0
 39 42  2  0  0  0  0
 39 43  1  0  0  0  0
 41 90  1  0  0  0  0
 41 91  1  0  0  0  0
 41 92  1  0  0  0  0
M  CHG  1  43  -1
M  END
>  <Code-name>
107

>  <Compound>
officimalonic acids A

>  <Specie>
Fomitopsis officinalis

>  <Reference>
GrÃ¼ndemann (2020)

>  <Organism>
N/A

>  <Smiles>
C[C@H](C[C@@H](C(C)=C1C)OC1=O)[C@@H](CC1)[C@@](C)([C@@H](C[C@]2([C@H](C3)O)[C@@](C)(CC4)[C@@H]3C(C)(C)[C@@H]4OC(CC(O)=O)=O)O)[C@]1(C)C2=O

>  <MMFF94 Energy>
102.57

>  <Total Molweight>
602.762

>  <Molweight>
602.762

>  <Monoisotopic Mass>
602.345485

>  <cLogP>
3.8824

>  <cLogS>
-5.46

>  <H-Acceptors>
9

>  <H-Donors>
3

>  <Total Surface Area>
426.68

>  <Relative PSA>
0.26123

>  <Polar Surface Area>
147.43

>  <Druglikeness>
-10.136

>  <Mutagenic>
none

>  <Tumorigenic>
none

>  <Reproductive Effective>
none

>  <Irritant>
none

>  <Nasty Functions>


>  <Shape Index>
0.46512

>  <Molecular Flexibility>
0.28994

>  <Molecular Complexity>
1.0349

>  <Fragments>
1

>  <Non-H Atoms>
43

>  <Non-C/H Atoms>
9

>  <Metal-Atoms>
0

>  <Electronegative Atoms>
9

>  <Stereo Centers>
11

>  <Rotatable Bonds>
7

>  <Rings Closures>
5

>  <Small Rings>
5

>  <Aromatic Rings>
0

>  <Aromatic Atoms>
0

>  <sp3-Atoms>
33

>  <Symmetric atoms>
1

>  <Amides>
0

>  <Amines>
0

>  <Alkyl-Amines>
0

>  <Aromatic Amines>
0

>  <Aromatic Nitrogens>
0

>  <Basic Nitrogens>
0

>  <Acidic Oxygens>
1

>  <Stereo Configuration>
this enantiomer

> <Gold.Version>
5.8.1

> <Gold.Id.Protein>
ID_2|Prot_COX2_5IKQ_Alig|mol2

> <Gold.Goldscore.Fitness>
0.0000

> <Gold.Goldscore.Internal.Vdw>
-43.2101

> <Gold.Goldscore.Internal.Torsion>
-19.0465

> <Gold.Goldscore.External.Vdw>
-1466.2525

> <Gold.Goldscore.Internal.HBond>
0.0000

> <Gold.Goldscore.External.HBond>
0.0000

> <Gold.Goldscore.Internal.Correction>
-41.2356

> <Gold.Goldscore.Hbonds>
donor molecule, donor type, donor heavy atom, donor atom, acceptor molecule, acceptor atom, score
      P1  H  7785  7796       L1     1  0.25
      P1  H  2529  2538       L1    22  0.75
      P1  H  7855  7866       L1    14  0.06
      L1  H    22    70       P1  5114  0.04

> <Gold.Goldscore.Internal.Vdw.Weighted>
-43.2101

> <Gold.Goldscore.Internal.Torsion.Weighted>
-19.0465

> <Gold.Goldscore.External.Vdw.Weighted>
-2016.0972

> <Gold.Goldscore.Internal.HBond.Weighted>
0.0000

> <Gold.Goldscore.External.HBond.Weighted>
0.0000

> <Gold.Goldscore.Internal.Correction.Weighted>
-41.2356

> <Gold.Protein.RotatedTorsions>
[ 5077 5068 5067 5065 ] final  122.28 input  179.94 | X-H torsion
[ 5157 5152 5151 5148 ] final  -88.52 input -179.92 | X-H torsion
[ 5185 5176 5175 5173 ] final  -81.56 input -179.99 | X-H torsion
[ 5712 5703 5702 5700 ] final -130.79 input  180.00 | X-H torsion
[ 8036 8031 8030 8027 ] final -106.82 input -179.94 | X-H torsion
[ 2749 2745 2743 2740 ] final  155.11 input  -60.05 | X-H torsion
[ 1366 1361 1360 1357 ] final  -16.50 input  -60.09 | X-H torsion
[ 2556 2551 2550 2547 ] final  133.09 input   59.97 | X-H torsion

> <Gold.Protein.ActiveResidues>
 PRO86   VAL89   HIS90   LEU93   THR94   ILE112  MET113  TYR115  VAL116  LEU117 
 THR118  SER119  ARG120  SER121  LEU123  ILE124  GLN192  SER194  PHE198  PHE201 
 ALA202  GLN203  PHE205  THR206  PHE209  PHE210  VAL228  ILE341  ILE343  VAL344 
 ILE345  GLU346  ASP347  TYR348  VAL349  GLN350  HIS351  LEU352  SER353  GLY354 
 TYR355  PHE357  LEU359  LYS360  GLU380  PHE381  ASN382  THR383  LEU384  TYR385 
 HIS386  TRP387  LEU390  VAL434  LEU507  ARG513  ALA516  ILE517  PHE518  GLY519 
 GLU520  THR521  MET522  VAL523  GLU524  VAL525  GLY526  ALA527  PRO528  PHE529 
 SER530  LEU531  LYS532  GLY533  LEU534  MET535  COH609 

> <Gold.Protein.RotatedAtoms>
   17.6446    7.7231    2.5804 H   0  0  0  0  0  0  0  0  0  0  0  0  # atno 1366 bound_to 1361
    4.8479   -9.7716    6.6404 H   0  0  0  0  0  0  0  0  0  0  0  0  # atno 2556 bound_to 2551
   -3.0450   -0.2960   -0.0426 H   0  0  0  0  0  0  0  0  0  0  0  0  # atno 2749 bound_to 2745
    1.2175   -1.3387    3.7878 H   0  0  0  0  0  0  0  0  0  0  0  0  # atno 5077 bound_to 5068
   11.3949   -1.8891    9.2968 H   0  0  0  0  0  0  0  0  0  0  0  0  # atno 5157 bound_to 5152
   16.5954   -0.2708    5.0070 H   0  0  0  0  0  0  0  0  0  0  0  0  # atno 5185 bound_to 5176
    2.1064    0.4435    2.5515 H   0  0  0  0  0  0  0  0  0  0  0  0  # atno 5712 bound_to 5703
    6.2565    4.5291    3.7115 H   0  0  0  0  0  0  0  0  0  0  0  0  # atno 8036 bound_to 8031
    0.7452   -2.6647    4.3169 LP  0  0  0  0  0  0  0  0  0  0  0  0  # atno 8267 bound_to 5068
    2.2812   -2.4008    3.8294 LP  0  0  0  0  0  0  0  0  0  0  0  0  # atno 8268 bound_to 5068
   12.8404   -1.4767    9.2234 LP  0  0  0  0  0  0  0  0  0  0  0  0  # atno 8279 bound_to 5152
   12.3648   -3.0387    9.2450 LP  0  0  0  0  0  0  0  0  0  0  0  0  # atno 8280 bound_to 5152
   15.2435    0.3846    4.9688 LP  0  0  0  0  0  0  0  0  0  0  0  0  # atno 8281 bound_to 5176
   15.4850   -1.1758    4.5525 LP  0  0  0  0  0  0  0  0  0  0  0  0  # atno 8282 bound_to 5176
    3.1811   -0.5995    2.4260 LP  0  0  0  0  0  0  0  0  0  0  0  0  # atno 8283 bound_to 5703
    1.6624   -0.9451    2.9166 LP  0  0  0  0  0  0  0  0  0  0  0  0  # atno 8284 bound_to 5703
    5.1037    3.6283    3.3654 LP  0  0  0  0  0  0  0  0  0  0  0  0  # atno 8309 bound_to 8031
    5.0016    5.2574    3.3179 LP  0  0  0  0  0  0  0  0  0  0  0  0  # atno 8310 bound_to 8031
   -4.3177    0.3256    0.4646 LP  0  0  0  0  0  0  0  0  0  0  0  0  # atno 8323 bound_to 2745
   -3.2464   -0.4240    1.4428 LP  0  0  0  0  0  0  0  0  0  0  0  0  # atno 8324 bound_to 2745
   18.6860    7.0921    3.4643 LP  0  0  0  0  0  0  0  0  0  0  0  0  # atno 8335 bound_to 1361
   18.4046    6.5968    1.9339 LP  0  0  0  0  0  0  0  0  0  0  0  0  # atno 8336 bound_to 1361
    5.2282   -9.9511    8.0851 LP  0  0  0  0  0  0  0  0  0  0  0  0  # atno 8342 bound_to 2551
    4.5026   -8.6013    7.5209 LP  0  0  0  0  0  0  0  0  0  0  0  0  # atno 8343 bound_to 2551

