
108|LMW3_p|sdf|108|dock11
  -GOLD-   6 82216183D 1   1.00000     0.00000

 89 93  0  0  0  0  0  0  0  0  2 V2000
   14.4247    3.7239    5.8085 O   0  0  0  0  0  0  0  0  0  0  0  0
   15.2328    3.0296    5.1947 C   0  0  0  0  0  0  0  0  0  0  0  0
   14.7891    1.8455    4.3846 C   0  0  0  0  0  0  0  0  0  0  0  0
   16.7056    3.3543    5.2823 C   0  0  0  0  0  0  0  0  0  0  0  0
   15.7074    1.0740    3.7477 C   0  0  0  0  0  0  0  0  0  0  0  0
   13.2987    1.5551    4.2482 C   0  0  1  0  0  0  0  0  0  0  0  0
   17.4518    2.8744    4.0354 C   0  0  2  0  0  0  0  0  0  0  0  0
   17.2369    1.3336    3.8396 C   0  0  2  0  0  0  0  0  0  0  0  0
   15.2677   -0.1412    2.9266 C   0  0  0  0  0  0  0  0  0  0  0  0
   13.0404   -0.0143    4.1984 C   0  0  2  0  0  0  0  0  0  0  0  0
   12.3331    1.9627    5.3713 C   0  0  0  0  0  0  0  0  0  0  0  0
   12.8577    2.3411    2.9732 C   0  0  0  0  0  0  0  0  0  0  0  0
   18.9275    3.4142    3.9194 C   0  0  0  0  0  0  0  0  0  0  0  0
   17.9784    0.9021    2.5467 C   0  0  0  0  0  0  0  0  0  0  0  0
   17.7277    0.4561    5.0156 C   0  0  0  0  0  0  0  0  0  0  0  0
   13.7649   -0.5288    2.9319 C   0  0  2  0  0  0  0  0  0  0  0  0
   11.4706   -0.0747    4.2030 C   0  0  2  0  0  0  0  0  0  0  0  0
   13.5793   -0.7571    5.4601 C   0  0  0  0  0  0  0  0  0  0  0  0
   11.0887    1.0929    5.1615 C   0  0  0  0  0  0  0  0  0  0  0  0
   19.5863    2.8621    2.6178 C   0  0  1  0  0  0  0  0  0  0  0  0
   18.9011    4.9665    3.8252 C   0  0  0  0  0  0  0  0  0  0  0  0
   19.8181    3.0833    5.1344 C   0  0  0  0  0  0  0  0  0  0  0  0
   19.4420    1.3435    2.4930 C   0  0  0  0  0  0  0  0  0  0  0  0
   13.6677   -1.9393    2.7584 O   0  0  0  0  0  0  0  0  0  0  0  0
   10.6981   -1.3691    4.6061 C   0  0  1  0  0  0  0  0  0  0  0  0
   18.9339    3.4742    1.4788 O   0  0  0  0  0  0  0  0  0  0  0  0
    9.1582   -1.1602    4.7595 C   0  0  0  0  0  0  0  0  0  0  0  0
   10.9441   -2.5622    3.6818 C   0  0  0  0  0  0  0  0  0  0  0  0
   19.5521    3.3408    0.2728 C   0  0  0  0  0  0  0  0  0  0  0  0
    8.5098   -0.1379    3.8101 C   0  0  2  0  0  0  0  0  0  0  0  0
   20.6818    2.9022    0.1023 O   0  0  0  0  0  0  0  0  0  0  0  0
   18.6753    3.8471   -0.8269 C   0  0  0  0  0  0  0  0  0  0  0  0
    7.6055    0.7007    4.5324 O   0  0  0  0  0  0  0  0  0  0  0  0
    7.6445   -0.7646    2.7684 C   0  0  0  0  0  0  0  0  0  0  0  0
   18.4081    5.3107   -0.7283 C   0  0  0  0  0  0  0  0  0  0  0  0
    6.3476    0.5627    4.0391 C   0  0  0  0  0  0  0  0  0  0  0  0
    6.3778   -0.3635    2.9005 C   0  0  0  0  0  0  0  0  0  0  0  0
    8.2193   -1.6706    1.7358 C   0  0  0  0  0  0  0  0  0  0  0  0
   18.3586    6.1246   -1.6337 O   0  0  0  0  0  0  0  0  0  0  0  0
   18.2320    5.7054    0.5504 O   0  5  0  0  0  0  0  0  0  0  0  0
    5.3563    1.1261    4.4656 O   0  0  0  0  0  0  0  0  0  0  0  0
    5.1470   -0.6770    2.1400 C   0  0  0  0  0  0  0  0  0  0  0  0
   17.1188    2.8726    6.1437 H   0  0  0  0  0  0  0  0  0  0  0  0
   16.8153    4.4162    5.3558 H   0  0  0  0  0  0  0  0  0  0  0  0
   17.0150    3.3315    3.1722 H   0  0  0  0  0  0  0  0  0  0  0  0
   15.8137   -0.9853    3.2930 H   0  0  0  0  0  0  0  0  0  0  0  0
   15.4639    0.1401    1.9131 H   0  0  0  0  0  0  0  0  0  0  0  0
   12.0836    3.0003    5.2944 H   0  0  0  0  0  0  0  0  0  0  0  0
   12.7628    1.8213    6.3410 H   0  0  0  0  0  0  0  0  0  0  0  0
   13.5072    2.0941    2.1595 H   0  0  0  0  0  0  0  0  0  0  0  0
   12.9113    3.3923    3.1659 H   0  0  0  0  0  0  0  0  0  0  0  0
   11.8525    2.0757    2.7204 H   0  0  0  0  0  0  0  0  0  0  0  0
   17.4677    1.3272    1.7080 H   0  0  0  0  0  0  0  0  0  0  0  0
   17.9767   -0.1678    2.5307 H   0  0  0  0  0  0  0  0  0  0  0  0
   18.7492    0.6892    5.2325 H   0  0  0  0  0  0  0  0  0  0  0  0
   17.6466   -0.5768    4.7480 H   0  0  0  0  0  0  0  0  0  0  0  0
   17.1267    0.6489    5.8796 H   0  0  0  0  0  0  0  0  0  0  0  0
   13.2589   -0.0509    2.1192 H   0  0  0  0  0  0  0  0  0  0  0  0
   11.1657   -0.0255    3.1786 H   0  0  0  0  0  0  0  0  0  0  0  0
   13.3603   -1.8014    5.3799 H   0  0  0  0  0  0  0  0  0  0  0  0
   13.1092   -0.3603    6.3357 H   0  0  0  0  0  0  0  0  0  0  0  0
   14.6381   -0.6192    5.5302 H   0  0  0  0  0  0  0  0  0  0  0  0
   10.3060    1.6785    4.7261 H   0  0  0  0  0  0  0  0  0  0  0  0
   10.7442    0.7065    6.0980 H   0  0  0  0  0  0  0  0  0  0  0  0
   20.6301    3.0948    2.6540 H   0  0  0  0  0  0  0  0  0  0  0  0
   18.8603    5.3830    4.8099 H   0  0  0  0  0  0  0  0  0  0  0  0
   18.0394    5.2756    3.2713 H   0  0  0  0  0  0  0  0  0  0  0  0
   19.7854    5.3089    3.3295 H   0  0  0  0  0  0  0  0  0  0  0  0
   20.6456    3.7609    5.1651 H   0  0  0  0  0  0  0  0  0  0  0  0
   20.1813    2.0805    5.0479 H   0  0  0  0  0  0  0  0  0  0  0  0
   19.2453    3.1788    6.0331 H   0  0  0  0  0  0  0  0  0  0  0  0
   19.8630    1.0318    1.5600 H   0  0  0  0  0  0  0  0  0  0  0  0
   19.9540    0.8933    3.3176 H   0  0  0  0  0  0  0  0  0  0  0  0
   14.1791   -2.3863    3.4510 H   0  0  0  0  0  0  0  0  0  0  0  0
   11.1125   -1.5989    5.5655 H   0  0  0  0  0  0  0  0  0  0  0  0
    8.9716   -0.8373    5.7625 H   0  0  0  0  0  0  0  0  0  0  0  0
    8.7166   -2.1019    4.5084 H   0  0  0  0  0  0  0  0  0  0  0  0
   11.9484   -2.9094    3.8072 H   0  0  0  0  0  0  0  0  0  0  0  0
   10.7944   -2.2629    2.6655 H   0  0  0  0  0  0  0  0  0  0  0  0
   10.2616   -3.3493    3.9260 H   0  0  0  0  0  0  0  0  0  0  0  0
    9.3346    0.3809    3.3678 H   0  0  0  0  0  0  0  0  0  0  0  0
   17.7417    3.3261   -0.7866 H   0  0  0  0  0  0  0  0  0  0  0  0
   19.1873    3.6756   -1.7507 H   0  0  0  0  0  0  0  0  0  0  0  0
    8.3804   -2.6392    2.1610 H   0  0  0  0  0  0  0  0  0  0  0  0
    9.1509   -1.2730    1.3911 H   0  0  0  0  0  0  0  0  0  0  0  0
    7.5395   -1.7507    0.9134 H   0  0  0  0  0  0  0  0  0  0  0  0
    4.4370   -1.1465    2.7883 H   0  0  0  0  0  0  0  0  0  0  0  0
    5.3851   -1.3383    1.3332 H   0  0  0  0  0  0  0  0  0  0  0  0
    4.7295    0.2271    1.7488 H   0  0  0  0  0  0  0  0  0  0  0  0
  1  2  2  0  0  0  0
  2  3  1  0  0  0  0
  2  4  1  0  0  0  0
  3  5  2  0  0  0  0
  3  6  1  0  0  0  0
  4  7  1  0  0  0  0
  4 43  1  0  0  0  0
  4 44  1  0  0  0  0
  5  8  1  0  0  0  0
  5  9  1  0  0  0  0
  6 10  1  0  0  0  0
  6 11  1  0  0  0  0
  6 12  1  0  0  0  0
  7 13  1  0  0  0  0
  7  8  1  0  0  0  0
  7 45  1  0  0  0  0
  8 14  1  0  0  0  0
  8 15  1  0  0  0  0
  9 16  1  0  0  0  0
  9 46  1  0  0  0  0
  9 47  1  0  0  0  0
 10 17  1  0  0  0  0
 10 18  1  0  0  0  0
 10 16  1  0  0  0  0
 11 19  1  0  0  0  0
 11 48  1  0  0  0  0
 11 49  1  0  0  0  0
 12 50  1  0  0  0  0
 12 51  1  0  0  0  0
 12 52  1  0  0  0  0
 13 20  1  0  0  0  0
 13 21  1  0  0  0  0
 13 22  1  0  0  0  0
 14 23  1  0  0  0  0
 14 53  1  0  0  0  0
 14 54  1  0  0  0  0
 15 55  1  0  0  0  0
 15 56  1  0  0  0  0
 15 57  1  0  0  0  0
 16 24  1  0  0  0  0
 16 58  1  0  0  0  0
 17 25  1  0  0  0  0
 17 19  1  0  0  0  0
 17 59  1  0  0  0  0
 18 60  1  0  0  0  0
 18 61  1  0  0  0  0
 18 62  1  0  0  0  0
 19 63  1  0  0  0  0
 19 64  1  0  0  0  0
 20 26  1  0  0  0  0
 20 23  1  0  0  0  0
 20 65  1  0  0  0  0
 21 66  1  0  0  0  0
 21 67  1  0  0  0  0
 21 68  1  0  0  0  0
 22 69  1  0  0  0  0
 22 70  1  0  0  0  0
 22 71  1  0  0  0  0
 23 72  1  0  0  0  0
 23 73  1  0  0  0  0
 24 74  1  0  0  0  0
 25 27  1  0  0  0  0
 25 28  1  0  0  0  0
 25 75  1  0  0  0  0
 26 29  1  0  0  0  0
 27 30  1  0  0  0  0
 27 76  1  0  0  0  0
 27 77  1  0  0  0  0
 28 78  1  0  0  0  0
 28 79  1  0  0  0  0
 28 80  1  0  0  0  0
 29 31  2  0  0  0  0
 29 32  1  0  0  0  0
 30 33  1  0  0  0  0
 30 34  1  0  0  0  0
 30 81  1  0  0  0  0
 32 35  1  0  0  0  0
 32 82  1  0  0  0  0
 32 83  1  0  0  0  0
 33 36  1  0  0  0  0
 34 37  2  0  0  0  0
 34 38  1  0  0  0  0
 35 39  2  0  0  0  0
 35 40  1  0  0  0  0
 36 41  2  0  0  0  0
 36 37  1  0  0  0  0
 37 42  1  0  0  0  0
 38 84  1  0  0  0  0
 38 85  1  0  0  0  0
 38 86  1  0  0  0  0
 42 87  1  0  0  0  0
 42 88  1  0  0  0  0
 42 89  1  0  0  0  0
M  CHG  1  40  -1
M  END
>  <Code-name>
108

>  <Compound>
officimalonic acids B

>  <Specie>
Fomitopsis officinalis

>  <Reference>
GrÃ¼ndemann (2020)

>  <Organism>
N/A

>  <Smiles>
C[C@H](C[C@@H](C(C)=C1C)OC1=O)[C@@H](CC1)[C@@](C)([C@@H](C2)O)[C@]1(C)C(C(C1)=O)=C2[C@@](C)(CC2)[C@@H]1C(C)(C)[C@@H]2OC(CC(O)=O)=O

>  <MMFF94 Energy>
80.273

>  <Total Molweight>
584.747

>  <Molweight>
584.747

>  <Monoisotopic Mass>
584.334920

>  <cLogP>
4.7387

>  <cLogS>
-5.542

>  <H-Acceptors>
8

>  <H-Donors>
2

>  <Total Surface Area>
420.34

>  <Relative PSA>
0.234

>  <Polar Surface Area>
127.2

>  <Druglikeness>
-10.16

>  <Mutagenic>
none

>  <Tumorigenic>
none

>  <Reproductive Effective>
high

>  <Irritant>
none

>  <Nasty Functions>


>  <Shape Index>
0.47619

>  <Molecular Flexibility>
0.28835

>  <Molecular Complexity>
1.0359

>  <Fragments>
1

>  <Non-H Atoms>
42

>  <Non-C/H Atoms>
8

>  <Metal-Atoms>
0

>  <Electronegative Atoms>
8

>  <Stereo Centers>
9

>  <Rotatable Bonds>
7

>  <Rings Closures>
5

>  <Small Rings>
5

>  <Aromatic Rings>
0

>  <Aromatic Atoms>
0

>  <sp3-Atoms>
30

>  <Symmetric atoms>
1

>  <Amides>
0

>  <Amines>
0

>  <Alkyl-Amines>
0

>  <Aromatic Amines>
0

>  <Aromatic Nitrogens>
0

>  <Basic Nitrogens>
0

>  <Acidic Oxygens>
1

>  <Stereo Configuration>
this enantiomer

> <Gold.Version>
5.8.1

> <Gold.Id.Protein>
ID_2|Prot_COX2_5IKQ_Alig|mol2

> <Gold.Goldscore.Fitness>
-110.4643

> <Gold.Goldscore.Internal.Vdw>
-42.4749

> <Gold.Goldscore.Internal.Torsion>
-9.9223

> <Gold.Goldscore.External.Vdw>
-67.4395

> <Gold.Goldscore.Internal.HBond>
0.0000

> <Gold.Goldscore.External.HBond>
4.7337

> <Gold.Goldscore.Internal.Correction>
-29.9286

> <Gold.Goldscore.Hbonds>
donor molecule, donor type, donor heavy atom, donor atom, acceptor molecule, acceptor atom, score
      P1  H  1374  1386       L1     1  0.03
      P1  H  1361  1366       L1    40  0.76

> <Gold.Goldscore.Internal.Vdw.Weighted>
-42.4749

> <Gold.Goldscore.Internal.Torsion.Weighted>
-9.9223

> <Gold.Goldscore.External.Vdw.Weighted>
-92.7293

> <Gold.Goldscore.Internal.HBond.Weighted>
0.0000

> <Gold.Goldscore.External.HBond.Weighted>
4.7337

> <Gold.Goldscore.Internal.Correction.Weighted>
-29.9286

> <Gold.Protein.RotatedTorsions>
[ 5077 5068 5067 5065 ] final  -43.33 input  179.94 | X-H torsion
[ 5157 5152 5151 5148 ] final -173.77 input -179.92 | X-H torsion
[ 5185 5176 5175 5173 ] final    1.43 input -179.99 | X-H torsion
[ 5712 5703 5702 5700 ] final  -19.33 input  180.00 | X-H torsion
[ 8036 8031 8030 8027 ] final -144.99 input -179.94 | X-H torsion
[ 2749 2745 2743 2740 ] final   59.48 input  -60.05 | X-H torsion
[ 1366 1361 1360 1357 ] final   97.21 input  -60.09 | X-H torsion
[ 2556 2551 2550 2547 ] final -160.80 input   59.97 | X-H torsion

> <Gold.Protein.ActiveResidues>
 PRO86   VAL89   HIS90   LEU93   THR94   ILE112  MET113  TYR115  VAL116  LEU117 
 THR118  SER119  ARG120  SER121  LEU123  ILE124  GLN192  SER194  PHE198  PHE201 
 ALA202  GLN203  PHE205  THR206  PHE209  PHE210  VAL228  ILE341  ILE343  VAL344 
 ILE345  GLU346  ASP347  TYR348  VAL349  GLN350  HIS351  LEU352  SER353  GLY354 
 TYR355  PHE357  LEU359  LYS360  GLU380  PHE381  ASN382  THR383  LEU384  TYR385 
 HIS386  TRP387  LEU390  VAL434  LEU507  ARG513  ALA516  ILE517  PHE518  GLY519 
 GLU520  THR521  MET522  VAL523  GLU524  VAL525  GLY526  ALA527  PRO528  PHE529 
 SER530  LEU531  LYS532  GLY533  LEU534  MET535  COH609 

> <Gold.Protein.RotatedAtoms>
   18.3359    6.7595    1.9930 H   0  0  0  0  0  0  0  0  0  0  0  0  # atno 1366 bound_to 1361
    4.5185   -8.9968    6.8260 H   0  0  0  0  0  0  0  0  0  0  0  0  # atno 2556 bound_to 2551
   -4.0521    0.2599    0.1741 H   0  0  0  0  0  0  0  0  0  0  0  0  # atno 2749 bound_to 2745
    1.4106   -2.8228    4.2498 H   0  0  0  0  0  0  0  0  0  0  0  0  # atno 5077 bound_to 5068
   12.3155   -1.3467    9.2252 H   0  0  0  0  0  0  0  0  0  0  0  0  # atno 5157 bound_to 5152
   16.0326   -1.0932    4.6954 H   0  0  0  0  0  0  0  0  0  0  0  0  # atno 5185 bound_to 5176
    1.6829   -0.7544    2.8379 H   0  0  0  0  0  0  0  0  0  0  0  0  # atno 5712 bound_to 5703
    6.1279    4.0314    3.6707 H   0  0  0  0  0  0  0  0  0  0  0  0  # atno 8036 bound_to 8031
    2.1908   -1.7060    3.6131 LP  0  0  0  0  0  0  0  0  0  0  0  0  # atno 8267 bound_to 5068
    0.6044   -1.5824    3.9799 LP  0  0  0  0  0  0  0  0  0  0  0  0  # atno 8268 bound_to 5068
   12.8471   -2.7545    9.2075 LP  0  0  0  0  0  0  0  0  0  0  0  0  # atno 8279 bound_to 5152
   11.2570   -2.4097    9.3466 LP  0  0  0  0  0  0  0  0  0  0  0  0  # atno 8280 bound_to 5152
   16.4822    0.2812    5.1048 LP  0  0  0  0  0  0  0  0  0  0  0  0  # atno 8281 bound_to 5176
   14.9221   -0.0850    4.7908 LP  0  0  0  0  0  0  0  0  0  0  0  0  # atno 8282 bound_to 5176
    2.2155    0.6195    2.5425 LP  0  0  0  0  0  0  0  0  0  0  0  0  # atno 8283 bound_to 5703
    3.1362   -0.7264    2.4563 LP  0  0  0  0  0  0  0  0  0  0  0  0  # atno 8284 bound_to 5703
    4.6941    4.0665    3.2203 LP  0  0  0  0  0  0  0  0  0  0  0  0  # atno 8309 bound_to 8031
    5.5655    5.4164    3.5120 LP  0  0  0  0  0  0  0  0  0  0  0  0  # atno 8310 bound_to 8031
   -3.5868   -0.2362    1.5161 LP  0  0  0  0  0  0  0  0  0  0  0  0  # atno 8323 bound_to 2745
   -2.7712   -0.5280    0.1318 LP  0  0  0  0  0  0  0  0  0  0  0  0  # atno 8324 bound_to 2745
   17.5246    7.8232    2.6815 LP  0  0  0  0  0  0  0  0  0  0  0  0  # atno 8335 bound_to 1361
   18.7389    7.0184    3.4194 LP  0  0  0  0  0  0  0  0  0  0  0  0  # atno 8336 bound_to 1361
    5.2227  -10.2948    7.1151 LP  0  0  0  0  0  0  0  0  0  0  0  0  # atno 8342 bound_to 2551
    4.9023   -9.1845    8.2688 LP  0  0  0  0  0  0  0  0  0  0  0  0  # atno 8343 bound_to 2551

