
112|LMW3_p|sdf|112|dock10
  -GOLD-   6 82216513D 1   1.00000     0.00000

 94 97  0  0  0  0  0  0  0  0  2 V2000
   14.4978    3.9030    5.7586 O   0  0  0  0  0  0  0  0  0  0  0  0
   15.3111    3.1929    5.1696 C   0  0  0  0  0  0  0  0  0  0  0  0
   14.8677    2.0075    4.3604 C   0  0  0  0  0  0  0  0  0  0  0  0
   16.7861    3.4993    5.2816 C   0  0  0  0  0  0  0  0  0  0  0  0
   15.7855    1.2343    3.7245 C   0  0  0  0  0  0  0  0  0  0  0  0
   13.3762    1.7210    4.2249 C   0  0  1  0  0  0  0  0  0  0  0  0
   17.5413    3.0220    4.0385 C   0  0  2  0  0  0  0  0  0  0  0  0
   17.3161    1.4845    3.8282 C   0  0  2  0  0  0  0  0  0  0  0  0
   15.3441    0.0228    2.8988 C   0  0  0  0  0  0  0  0  0  0  0  0
   13.1135    0.1521    4.1594 C   0  0  2  0  0  0  0  0  0  0  0  0
   12.4147    2.1197    5.3554 C   0  0  0  0  0  0  0  0  0  0  0  0
   12.9337    2.5216    2.9595 C   0  0  0  0  0  0  0  0  0  0  0  0
   19.0224    3.5503    3.9412 C   0  0  0  0  0  0  0  0  0  0  0  0
   18.0640    1.0591    2.5363 C   0  0  0  0  0  0  0  0  0  0  0  0
   17.7930    0.5944    5.0009 C   0  0  0  0  0  0  0  0  0  0  0  0
   13.8379   -0.3496    2.8879 C   0  0  2  0  0  0  0  0  0  0  0  0
   11.5448    0.0962    4.1691 C   0  0  2  0  0  0  0  0  0  0  0  0
   13.6507   -0.6069    5.4128 C   0  0  0  0  0  0  0  0  0  0  0  0
   11.1694    1.2506    5.1464 C   0  0  0  0  0  0  0  0  0  0  0  0
   19.6914    3.0010    2.6433 C   0  0  1  0  0  0  0  0  0  0  0  0
   19.0082    5.1033    3.8578 C   0  0  0  0  0  0  0  0  0  0  0  0
   19.8980    3.2044    5.1633 C   0  0  0  0  0  0  0  0  0  0  0  0
   19.5331    1.4851    2.5027 C   0  0  0  0  0  0  0  0  0  0  0  0
   13.7304   -1.7544    2.6854 O   0  0  0  0  0  0  0  0  0  0  0  0
   10.7707   -1.2037    4.5552 C   0  0  1  0  0  0  0  0  0  0  0  0
   19.0599    3.6264    1.5001 O   0  0  0  0  0  0  0  0  0  0  0  0
    9.2250   -1.0244    4.4909 C   0  0  0  0  0  0  0  0  0  0  0  0
   11.1618   -2.4311    3.7309 C   0  0  0  0  0  0  0  0  0  0  0  0
   19.6670    3.4488    0.2938 C   0  0  0  0  0  0  0  0  0  0  0  0
    8.6136   -1.1632    3.0890 C   0  0  0  0  0  0  0  0  0  0  0  0
   20.7386    2.8846    0.1174 O   0  0  0  0  0  0  0  0  0  0  0  0
   18.8159    3.9919   -0.8078 C   0  0  0  0  0  0  0  0  0  0  0  0
    7.3574   -0.3218    2.9189 C   0  0  0  0  0  0  0  0  0  0  0  0
   19.1682    3.4244   -2.1455 C   0  0  0  0  0  0  0  0  0  0  0  0
    6.5610   -0.0988    3.9809 C   0  0  0  0  0  0  0  0  0  0  0  0
    7.0850    0.2031    1.5076 C   0  0  1  0  0  0  0  0  0  0  0  0
   20.2897    3.1093   -2.5156 O   0  0  0  0  0  0  0  0  0  0  0  0
   18.0341    3.2849   -2.8924 O   0  0  0  0  0  0  0  0  0  0  0  0
    7.3096   -0.8945    0.4710 C   0  0  0  0  0  0  0  0  0  0  0  0
    5.6923    0.7941    1.2745 C   0  0  0  0  0  0  0  0  0  0  0  0
   18.2538    2.7132   -4.1836 C   0  0  0  0  0  0  0  0  0  0  0  0
    6.5569   -1.8045    0.1641 O   0  0  0  0  0  0  0  0  0  0  0  0
    8.4980   -0.7652   -0.1590 O   0  5  0  0  0  0  0  0  0  0  0  0
   17.1820    3.0038    6.1433 H   0  0  0  0  0  0  0  0  0  0  0  0
   16.9087    4.5586    5.3692 H   0  0  0  0  0  0  0  0  0  0  0  0
   17.1163    3.4894    3.1748 H   0  0  0  0  0  0  0  0  0  0  0  0
   15.8779   -0.8262    3.2716 H   0  0  0  0  0  0  0  0  0  0  0  0
   15.5550    0.3012    1.8874 H   0  0  0  0  0  0  0  0  0  0  0  0
   12.1641    3.1576    5.2867 H   0  0  0  0  0  0  0  0  0  0  0  0
   12.8492    1.9713    6.3219 H   0  0  0  0  0  0  0  0  0  0  0  0
   13.0787    3.5678    3.1306 H   0  0  0  0  0  0  0  0  0  0  0  0
   11.8993    2.3326    2.7616 H   0  0  0  0  0  0  0  0  0  0  0  0
   13.5197    2.2130    2.1192 H   0  0  0  0  0  0  0  0  0  0  0  0
   17.5661    1.4998    1.6979 H   0  0  0  0  0  0  0  0  0  0  0  0
   18.0496   -0.0103    2.5065 H   0  0  0  0  0  0  0  0  0  0  0  0
   17.2112    0.8108    5.8725 H   0  0  0  0  0  0  0  0  0  0  0  0
   18.8249    0.7928    5.2026 H   0  0  0  0  0  0  0  0  0  0  0  0
   17.6726   -0.4359    4.7385 H   0  0  0  0  0  0  0  0  0  0  0  0
   13.3372    0.1460    2.0826 H   0  0  0  0  0  0  0  0  0  0  0  0
   11.2355    0.1623    3.1469 H   0  0  0  0  0  0  0  0  0  0  0  0
   14.7120   -0.4859    5.4754 H   0  0  0  0  0  0  0  0  0  0  0  0
   13.4146   -1.6471    5.3281 H   0  0  0  0  0  0  0  0  0  0  0  0
   13.1937   -0.2082    6.2943 H   0  0  0  0  0  0  0  0  0  0  0  0
   10.3817    1.8403    4.7259 H   0  0  0  0  0  0  0  0  0  0  0  0
   10.8340    0.8516    6.0808 H   0  0  0  0  0  0  0  0  0  0  0  0
   20.7367    3.2237    2.6966 H   0  0  0  0  0  0  0  0  0  0  0  0
   18.1558    5.4225    3.2953 H   0  0  0  0  0  0  0  0  0  0  0  0
   19.9011    5.4428    3.3758 H   0  0  0  0  0  0  0  0  0  0  0  0
   18.9578    5.5130    4.8450 H   0  0  0  0  0  0  0  0  0  0  0  0
   20.2355    2.1920    5.0850 H   0  0  0  0  0  0  0  0  0  0  0  0
   19.3233    3.3206    6.0582 H   0  0  0  0  0  0  0  0  0  0  0  0
   20.7426    3.8606    5.1941 H   0  0  0  0  0  0  0  0  0  0  0  0
   19.9612    1.1776    1.5716 H   0  0  0  0  0  0  0  0  0  0  0  0
   20.0315    1.0218    3.3284 H   0  0  0  0  0  0  0  0  0  0  0  0
   14.2456   -2.2192    3.3632 H   0  0  0  0  0  0  0  0  0  0  0  0
   11.0657   -1.3814    5.5683 H   0  0  0  0  0  0  0  0  0  0  0  0
    8.9883   -0.0488    4.8611 H   0  0  0  0  0  0  0  0  0  0  0  0
    8.8074   -1.8147    5.0790 H   0  0  0  0  0  0  0  0  0  0  0  0
   12.1240   -2.7792    4.0439 H   0  0  0  0  0  0  0  0  0  0  0  0
   11.1974   -2.1680    2.6944 H   0  0  0  0  0  0  0  0  0  0  0  0
   10.4375   -3.2049    3.8777 H   0  0  0  0  0  0  0  0  0  0  0  0
    8.3644   -2.1905    2.9230 H   0  0  0  0  0  0  0  0  0  0  0  0
    9.3373   -0.8163    2.3814 H   0  0  0  0  0  0  0  0  0  0  0  0
   18.9399    5.0541   -0.8437 H   0  0  0  0  0  0  0  0  0  0  0  0
   17.8033    3.7175   -0.5978 H   0  0  0  0  0  0  0  0  0  0  0  0
    6.8112   -0.4865    4.9040 H   0  0  0  0  0  0  0  0  0  0  0  0
    5.7002    0.4599    3.8721 H   0  0  0  0  0  0  0  0  0  0  0  0
    7.7814    1.0082    1.3994 H   0  0  0  0  0  0  0  0  0  0  0  0
    4.9502    0.0529    1.4860 H   0  0  0  0  0  0  0  0  0  0  0  0
    5.6036    1.1068    0.2551 H   0  0  0  0  0  0  0  0  0  0  0  0
    5.5495    1.6358    1.9194 H   0  0  0  0  0  0  0  0  0  0  0  0
   18.6237    1.7153   -4.0737 H   0  0  0  0  0  0  0  0  0  0  0  0
   18.9700    3.3024   -4.7173 H   0  0  0  0  0  0  0  0  0  0  0  0
   17.3321    2.6940   -4.7267 H   0  0  0  0  0  0  0  0  0  0  0  0
  1  2  2  0  0  0  0
  2  3  1  0  0  0  0
  2  4  1  0  0  0  0
  3  5  2  0  0  0  0
  3  6  1  0  0  0  0
  4  7  1  0  0  0  0
  4 44  1  0  0  0  0
  4 45  1  0  0  0  0
  5  8  1  0  0  0  0
  5  9  1  0  0  0  0
  6 10  1  0  0  0  0
  6 11  1  0  0  0  0
  6 12  1  0  0  0  0
  7 13  1  0  0  0  0
  7  8  1  0  0  0  0
  7 46  1  0  0  0  0
  8 14  1  0  0  0  0
  8 15  1  0  0  0  0
  9 16  1  0  0  0  0
  9 47  1  0  0  0  0
  9 48  1  0  0  0  0
 10 17  1  0  0  0  0
 10 18  1  0  0  0  0
 10 16  1  0  0  0  0
 11 19  1  0  0  0  0
 11 49  1  0  0  0  0
 11 50  1  0  0  0  0
 12 51  1  0  0  0  0
 12 52  1  0  0  0  0
 12 53  1  0  0  0  0
 13 20  1  0  0  0  0
 13 21  1  0  0  0  0
 13 22  1  0  0  0  0
 14 23  1  0  0  0  0
 14 54  1  0  0  0  0
 14 55  1  0  0  0  0
 15 56  1  0  0  0  0
 15 57  1  0  0  0  0
 15 58  1  0  0  0  0
 16 24  1  0  0  0  0
 16 59  1  0  0  0  0
 17 25  1  0  0  0  0
 17 19  1  0  0  0  0
 17 60  1  0  0  0  0
 18 61  1  0  0  0  0
 18 62  1  0  0  0  0
 18 63  1  0  0  0  0
 19 64  1  0  0  0  0
 19 65  1  0  0  0  0
 20 26  1  0  0  0  0
 20 23  1  0  0  0  0
 20 66  1  0  0  0  0
 21 67  1  0  0  0  0
 21 68  1  0  0  0  0
 21 69  1  0  0  0  0
 22 70  1  0  0  0  0
 22 71  1  0  0  0  0
 22 72  1  0  0  0  0
 23 73  1  0  0  0  0
 23 74  1  0  0  0  0
 24 75  1  0  0  0  0
 25 27  1  0  0  0  0
 25 28  1  0  0  0  0
 25 76  1  0  0  0  0
 26 29  1  0  0  0  0
 27 30  1  0  0  0  0
 27 77  1  0  0  0  0
 27 78  1  0  0  0  0
 28 79  1  0  0  0  0
 28 80  1  0  0  0  0
 28 81  1  0  0  0  0
 29 31  2  0  0  0  0
 29 32  1  0  0  0  0
 30 33  1  0  0  0  0
 30 82  1  0  0  0  0
 30 83  1  0  0  0  0
 32 34  1  0  0  0  0
 32 84  1  0  0  0  0
 32 85  1  0  0  0  0
 33 35  2  0  0  0  0
 33 36  1  0  0  0  0
 34 37  2  0  0  0  0
 34 38  1  0  0  0  0
 35 86  1  0  0  0  0
 35 87  1  0  0  0  0
 36 39  1  0  0  0  0
 36 40  1  0  0  0  0
 36 88  1  0  0  0  0
 38 41  1  0  0  0  0
 39 42  2  0  0  0  0
 39 43  1  0  0  0  0
 40 89  1  0  0  0  0
 40 90  1  0  0  0  0
 40 91  1  0  0  0  0
 41 92  1  0  0  0  0
 41 93  1  0  0  0  0
 41 94  1  0  0  0  0
M  CHG  1  43  -1
M  END
>  <Code-name>
112

>  <Compound>
officimalonic acids F

>  <Specie>
Fomitopsis officinalis

>  <Reference>
GrÃ¼ndemann (2020)

>  <Organism>
N/A

>  <Smiles>
C[C@H](CCC([C@H](C)C(O)=O)=C)[C@@H](CC1)[C@@](C)([C@@H](C2)O)[C@]1(C)C(C(C1)=O)=C2[C@@](C)(CC2)[C@@H]1C(C)(C)[C@@H]2OC(CC(OC)=O)=O

>  <MMFF94 Energy>
112

>  <Total Molweight>
600.790

>  <Molweight>
600.790

>  <Monoisotopic Mass>
600.366220

>  <cLogP>
5.9604

>  <cLogS>
-5.791

>  <H-Acceptors>
8

>  <H-Donors>
2

>  <Total Surface Area>
447.43

>  <Relative PSA>
0.21983

>  <Polar Surface Area>
127.2

>  <Druglikeness>
-19.894

>  <Mutagenic>
none

>  <Tumorigenic>
none

>  <Reproductive Effective>
none

>  <Irritant>
high

>  <Nasty Functions>


>  <Shape Index>
0.51163

>  <Molecular Flexibility>
0.38908

>  <Molecular Complexity>
1.025

>  <Fragments>
1

>  <Non-H Atoms>
43

>  <Non-C/H Atoms>
8

>  <Metal-Atoms>
0

>  <Electronegative Atoms>
8

>  <Stereo Centers>
9

>  <Rotatable Bonds>
11

>  <Rings Closures>
4

>  <Small Rings>
4

>  <Aromatic Rings>
0

>  <Aromatic Atoms>
0

>  <sp3-Atoms>
31

>  <Symmetric atoms>
1

>  <Amides>
0

>  <Amines>
0

>  <Alkyl-Amines>
0

>  <Aromatic Amines>
0

>  <Aromatic Nitrogens>
0

>  <Basic Nitrogens>
0

>  <Acidic Oxygens>
1

>  <Stereo Configuration>
this enantiomer

> <Gold.Version>
5.8.1

> <Gold.Id.Protein>
ID_2|Prot_COX2_5IKQ_Alig|mol2

> <Gold.Goldscore.Fitness>
-96.8764

> <Gold.Goldscore.Internal.Vdw>
-33.2529

> <Gold.Goldscore.Internal.Torsion>
-8.2356

> <Gold.Goldscore.External.Vdw>
-65.8744

> <Gold.Goldscore.Internal.HBond>
0.0000

> <Gold.Goldscore.External.HBond>
0.3215

> <Gold.Goldscore.Internal.Correction>
-34.8678

> <Gold.Goldscore.Hbonds>
donor molecule, donor type, donor heavy atom, donor atom, acceptor molecule, acceptor atom, score
      P1  H  1374  1386       L1     1  0.05

> <Gold.Goldscore.Internal.Vdw.Weighted>
-33.2529

> <Gold.Goldscore.Internal.Torsion.Weighted>
-8.2356

> <Gold.Goldscore.External.Vdw.Weighted>
-90.5773

> <Gold.Goldscore.Internal.HBond.Weighted>
0.0000

> <Gold.Goldscore.External.HBond.Weighted>
0.3215

> <Gold.Goldscore.Internal.Correction.Weighted>
-34.8678

> <Gold.Protein.RotatedTorsions>
[ 5077 5068 5067 5065 ] final -143.17 input  179.94 | X-H torsion
[ 5157 5152 5151 5148 ] final  157.72 input -179.92 | X-H torsion
[ 5185 5176 5175 5173 ] final   15.64 input -179.99 | X-H torsion
[ 5712 5703 5702 5700 ] final   59.94 input  180.00 | X-H torsion
[ 8036 8031 8030 8027 ] final -107.24 input -179.94 | X-H torsion
[ 2749 2745 2743 2740 ] final  -22.32 input  -60.05 | X-H torsion
[ 1366 1361 1360 1357 ] final   55.24 input  -60.09 | X-H torsion
[ 2556 2551 2550 2547 ] final   10.04 input   59.97 | X-H torsion

> <Gold.Protein.ActiveResidues>
 PRO86   VAL89   HIS90   LEU93   THR94   ILE112  MET113  TYR115  VAL116  LEU117 
 THR118  SER119  ARG120  SER121  LEU123  ILE124  GLN192  SER194  PHE198  PHE201 
 ALA202  GLN203  PHE205  THR206  PHE209  PHE210  VAL228  ILE341  ILE343  VAL344 
 ILE345  GLU346  ASP347  TYR348  VAL349  GLN350  HIS351  LEU352  SER353  GLY354 
 TYR355  PHE357  LEU359  LYS360  GLU380  PHE381  ASN382  THR383  LEU384  TYR385 
 HIS386  TRP387  LEU390  VAL434  LEU507  ARG513  ALA516  ILE517  PHE518  GLY519 
 GLU520  THR521  MET522  VAL523  GLU524  VAL525  GLY526  ALA527  PRO528  PHE529 
 SER530  LEU531  LYS532  GLY533  LEU534  MET535  COH609 

> <Gold.Protein.RotatedAtoms>
   17.9148    7.1311    1.9215 H   0  0  0  0  0  0  0  0  0  0  0  0  # atno 1366 bound_to 1361
    5.1206   -9.8581    8.0001 H   0  0  0  0  0  0  0  0  0  0  0  0  # atno 2556 bound_to 2551
   -3.9628    0.0753    1.1879 H   0  0  0  0  0  0  0  0  0  0  0  0  # atno 2749 bound_to 2745
    2.1647   -2.0078    3.7741 H   0  0  0  0  0  0  0  0  0  0  0  0  # atno 5077 bound_to 5068
   12.6627   -1.5201    9.1936 H   0  0  0  0  0  0  0  0  0  0  0  0  # atno 5157 bound_to 5152
   15.8415   -1.1140    4.6638 H   0  0  0  0  0  0  0  0  0  0  0  0  # atno 5185 bound_to 5176
    2.6182   -1.0390    2.6033 H   0  0  0  0  0  0  0  0  0  0  0  0  # atno 5712 bound_to 5703
    6.2568    4.5234    3.7116 H   0  0  0  0  0  0  0  0  0  0  0  0  # atno 8036 bound_to 8031
    0.8093   -1.3610    3.8507 LP  0  0  0  0  0  0  0  0  0  0  0  0  # atno 8267 bound_to 5068
    1.0830   -2.9033    4.3120 LP  0  0  0  0  0  0  0  0  0  0  0  0  # atno 8268 bound_to 5068
   12.4606   -3.0108    9.2372 LP  0  0  0  0  0  0  0  0  0  0  0  0  # atno 8279 bound_to 5152
   11.2282   -1.9459    9.3547 LP  0  0  0  0  0  0  0  0  0  0  0  0  # atno 8280 bound_to 5152
   16.6265    0.1008    5.0722 LP  0  0  0  0  0  0  0  0  0  0  0  0  # atno 8281 bound_to 5176
   15.0073    0.1205    4.8612 LP  0  0  0  0  0  0  0  0  0  0  0  0  # atno 8282 bound_to 5176
    1.4050   -0.1997    2.8905 LP  0  0  0  0  0  0  0  0  0  0  0  0  # atno 8283 bound_to 5703
    2.8242    0.4343    2.3899 LP  0  0  0  0  0  0  0  0  0  0  0  0  # atno 8284 bound_to 5703
    5.0979    3.6314    3.3634 LP  0  0  0  0  0  0  0  0  0  0  0  0  # atno 8309 bound_to 8031
    5.0071    5.2613    3.3197 LP  0  0  0  0  0  0  0  0  0  0  0  0  # atno 8310 bound_to 8031
   -2.7181   -0.6377    0.7345 LP  0  0  0  0  0  0  0  0  0  0  0  0  # atno 8323 bound_to 2745
   -3.7468    0.0947   -0.3008 LP  0  0  0  0  0  0  0  0  0  0  0  0  # atno 8324 bound_to 2745
   17.8567    7.7968    3.2696 LP  0  0  0  0  0  0  0  0  0  0  0  0  # atno 8335 bound_to 1361
   18.9105    6.6003    2.9169 LP  0  0  0  0  0  0  0  0  0  0  0  0  # atno 8336 bound_to 1361
    4.4923   -8.5980    7.4694 LP  0  0  0  0  0  0  0  0  0  0  0  0  # atno 8342 bound_to 2551
    4.9123   -9.8508    6.5099 LP  0  0  0  0  0  0  0  0  0  0  0  0  # atno 8343 bound_to 2551

