
114|LMW3_p|sdf|114|dock7
  -GOLD-   6 82217373D 1   1.00000     0.00000

 95 98  0  0  0  0  0  0  0  0  2 V2000
    5.0501    0.8733    0.5535 O   0  0  0  0  0  0  0  0  0  0  0  0
    5.3324    0.5454    1.6944 C   0  0  0  0  0  0  0  0  0  0  0  0
    4.3791    0.0200    2.4954 O   0  5  0  0  0  0  0  0  0  0  0  0
    6.6912    0.6172    2.3853 C   0  0  2  0  0  0  0  0  0  0  0  0
    7.4674   -0.6853    2.1832 C   0  0  0  0  0  0  0  0  0  0  0  0
    6.4597    1.0355    3.8394 C   0  0  0  0  0  0  0  0  0  0  0  0
    6.9496   -1.8047    1.6445 C   0  0  0  0  0  0  0  0  0  0  0  0
    8.9254   -0.6680    2.6175 C   0  0  0  0  0  0  0  0  0  0  0  0
    9.1580   -1.4699    3.9065 C   0  0  0  0  0  0  0  0  0  0  0  0
   10.6310   -1.4951    4.4100 C   0  0  2  0  0  0  0  0  0  0  0  0
   11.4257   -0.2117    4.0140 C   0  0  2  0  0  0  0  0  0  0  0  0
   11.2894   -2.7985    3.9544 C   0  0  0  0  0  0  0  0  0  0  0  0
   12.9944   -0.1645    4.0725 C   0  0  2  0  0  0  0  0  0  0  0  0
   11.0098    0.9839    4.9286 C   0  0  0  0  0  0  0  0  0  0  0  0
   13.2550    1.3987    4.1045 C   0  0  1  0  0  0  0  0  0  0  0  0
   13.7769   -0.7005    2.8493 C   0  0  2  0  0  0  0  0  0  0  0  0
   13.4732   -0.8893    5.3686 C   0  0  0  0  0  0  0  0  0  0  0  0
   12.2543    1.8446    5.1785 C   0  0  0  0  0  0  0  0  0  0  0  0
   14.7332    1.6969    4.3279 C   0  0  0  0  0  0  0  0  0  0  0  0
   12.8788    2.1619    2.7940 C   0  0  0  0  0  0  0  0  0  0  0  0
   13.6897   -2.1153    2.7019 O   0  0  0  0  0  0  0  0  0  0  0  0
   15.2785   -0.3019    2.8987 C   0  0  0  0  0  0  0  0  0  0  0  0
   15.6728    0.9223    3.7288 C   0  0  0  0  0  0  0  0  0  0  0  0
   15.0676    2.9164    5.1568 C   0  0  0  0  0  0  0  0  0  0  0  0
   17.1904    1.2150    3.8849 C   0  0  2  0  0  0  0  0  0  0  0  0
   16.5582    3.1907    5.3652 C   0  0  0  0  0  0  0  0  0  0  0  0
   17.3760    2.7591    4.1383 C   0  0  1  0  0  0  0  0  0  0  0  0
   17.9858    0.8384    2.6081 C   0  0  0  0  0  0  0  0  0  0  0  0
   17.6550    0.3091    5.0513 C   0  0  0  0  0  0  0  0  0  0  0  0
   18.8489    3.3151    4.1072 C   0  0  0  0  0  0  0  0  0  0  0  0
   19.4463    1.2950    2.6337 C   0  0  0  0  0  0  0  0  0  0  0  0
   19.5715    2.8092    2.8202 C   0  0  1  0  0  0  0  0  0  0  0  0
   19.6879    2.9582    5.3511 C   0  0  0  0  0  0  0  0  0  0  0  0
   18.8081    4.8697    4.0566 C   0  0  0  0  0  0  0  0  0  0  0  0
   18.9689    3.4511    1.6698 O   0  0  0  0  0  0  0  0  0  0  0  0
   19.5536    3.2223    0.4618 C   0  0  0  0  0  0  0  0  0  0  0  0
   20.7065    2.8497    0.2906 O   0  0  0  0  0  0  0  0  0  0  0  0
   18.5999    3.5332   -0.6459 C   0  0  0  0  0  0  0  0  0  0  0  0
   18.5631    4.9897   -0.9823 C   0  0  0  0  0  0  0  0  0  0  0  0
   18.2428    5.8911   -0.2210 O   0  0  0  0  0  0  0  0  0  0  0  0
   18.9135    5.1641   -2.2902 O   0  0  0  0  0  0  0  0  0  0  0  0
   18.8797    6.5253   -2.7243 C   0  0  0  0  0  0  0  0  0  0  0  0
    7.3265    1.3607    1.9511 H   0  0  0  0  0  0  0  0  0  0  0  0
    7.3975    1.2768    4.2947 H   0  0  0  0  0  0  0  0  0  0  0  0
    6.0007    0.2301    4.3735 H   0  0  0  0  0  0  0  0  0  0  0  0
    5.8192    1.8923    3.8664 H   0  0  0  0  0  0  0  0  0  0  0  0
    5.9616   -1.8250    1.3472 H   0  0  0  0  0  0  0  0  0  0  0  0
    7.5406   -2.6427    1.5286 H   0  0  0  0  0  0  0  0  0  0  0  0
    9.2229    0.3462    2.7846 H   0  0  0  0  0  0  0  0  0  0  0  0
    9.5044   -1.1214    1.8403 H   0  0  0  0  0  0  0  0  0  0  0  0
    8.8506   -2.4793    3.7292 H   0  0  0  0  0  0  0  0  0  0  0  0
    8.5898   -0.9802    4.6695 H   0  0  0  0  0  0  0  0  0  0  0  0
   10.6388   -1.4787    5.4798 H   0  0  0  0  0  0  0  0  0  0  0  0
   11.1616   -0.1800    2.9775 H   0  0  0  0  0  0  0  0  0  0  0  0
   10.7180   -3.6302    4.3103 H   0  0  0  0  0  0  0  0  0  0  0  0
   12.2825   -2.8533    4.3489 H   0  0  0  0  0  0  0  0  0  0  0  0
   11.3284   -2.8238    2.8855 H   0  0  0  0  0  0  0  0  0  0  0  0
   10.6308    0.6149    5.8587 H   0  0  0  0  0  0  0  0  0  0  0  0
   10.2450    1.5645    4.4565 H   0  0  0  0  0  0  0  0  0  0  0  0
   13.3073   -0.2418    2.0043 H   0  0  0  0  0  0  0  0  0  0  0  0
   12.6375   -1.3587    5.8442 H   0  0  0  0  0  0  0  0  0  0  0  0
   13.9089   -0.1755    6.0362 H   0  0  0  0  0  0  0  0  0  0  0  0
   14.2017   -1.6307    5.1143 H   0  0  0  0  0  0  0  0  0  0  0  0
   12.6467    1.6660    6.1578 H   0  0  0  0  0  0  0  0  0  0  0  0
   12.0410    2.8917    5.1248 H   0  0  0  0  0  0  0  0  0  0  0  0
   12.8793    3.2153    2.9821 H   0  0  0  0  0  0  0  0  0  0  0  0
   11.9052    1.8577    2.4711 H   0  0  0  0  0  0  0  0  0  0  0  0
   13.5944    1.9355    2.0315 H   0  0  0  0  0  0  0  0  0  0  0  0
   14.4245   -2.4290    2.1518 H   0  0  0  0  0  0  0  0  0  0  0  0
   15.5915   -0.1176    1.8923 H   0  0  0  0  0  0  0  0  0  0  0  0
   15.7556   -1.1228    3.3921 H   0  0  0  0  0  0  0  0  0  0  0  0
   14.6188    2.7919    6.1200 H   0  0  0  0  0  0  0  0  0  0  0  0
   14.6919    3.7538    4.6068 H   0  0  0  0  0  0  0  0  0  0  0  0
   16.8976    2.6455    6.2210 H   0  0  0  0  0  0  0  0  0  0  0  0
   16.6935    4.2419    5.5116 H   0  0  0  0  0  0  0  0  0  0  0  0
   16.9762    3.2438    3.2722 H   0  0  0  0  0  0  0  0  0  0  0  0
   17.5056    1.2908    1.7657 H   0  0  0  0  0  0  0  0  0  0  0  0
   17.9941   -0.2300    2.5497 H   0  0  0  0  0  0  0  0  0  0  0  0
   18.7233    0.2497    5.0531 H   0  0  0  0  0  0  0  0  0  0  0  0
   17.2434   -0.6708    4.9276 H   0  0  0  0  0  0  0  0  0  0  0  0
   17.3193    0.7224    5.9794 H   0  0  0  0  0  0  0  0  0  0  0  0
   19.9098    1.0216    1.7089 H   0  0  0  0  0  0  0  0  0  0  0  0
   19.9264    0.8194    3.4633 H   0  0  0  0  0  0  0  0  0  0  0  0
   20.6096    3.0490    2.9186 H   0  0  0  0  0  0  0  0  0  0  0  0
   20.6396    3.4436    5.2907 H   0  0  0  0  0  0  0  0  0  0  0  0
   19.8300    1.8986    5.3934 H   0  0  0  0  0  0  0  0  0  0  0  0
   19.1762    3.2849    6.2322 H   0  0  0  0  0  0  0  0  0  0  0  0
   18.6808    5.2555    5.0465 H   0  0  0  0  0  0  0  0  0  0  0  0
   17.9902    5.1852    3.4430 H   0  0  0  0  0  0  0  0  0  0  0  0
   19.7250    5.2373    3.6455 H   0  0  0  0  0  0  0  0  0  0  0  0
   17.6189    3.2251   -0.3499 H   0  0  0  0  0  0  0  0  0  0  0  0
   18.9330    3.0081   -1.5167 H   0  0  0  0  0  0  0  0  0  0  0  0
   19.5445    7.1085   -2.1219 H   0  0  0  0  0  0  0  0  0  0  0  0
   17.8843    6.9059   -2.6276 H   0  0  0  0  0  0  0  0  0  0  0  0
   19.1848    6.5808   -3.7483 H   0  0  0  0  0  0  0  0  0  0  0  0
  1  2  2  0  0  0  0
  2  3  1  0  0  0  0
  2  4  1  0  0  0  0
  4  5  1  0  0  0  0
  4  6  1  0  0  0  0
  4 43  1  0  0  0  0
  5  7  2  0  0  0  0
  5  8  1  0  0  0  0
  6 44  1  0  0  0  0
  6 45  1  0  0  0  0
  6 46  1  0  0  0  0
  7 47  1  0  0  0  0
  7 48  1  0  0  0  0
  8  9  1  0  0  0  0
  8 49  1  0  0  0  0
  8 50  1  0  0  0  0
  9 10  1  0  0  0  0
  9 51  1  0  0  0  0
  9 52  1  0  0  0  0
 10 11  1  0  0  0  0
 10 12  1  0  0  0  0
 10 53  1  0  0  0  0
 11 13  1  0  0  0  0
 11 14  1  0  0  0  0
 11 54  1  0  0  0  0
 12 55  1  0  0  0  0
 12 56  1  0  0  0  0
 12 57  1  0  0  0  0
 13 15  1  0  0  0  0
 13 16  1  0  0  0  0
 13 17  1  0  0  0  0
 14 18  1  0  0  0  0
 14 58  1  0  0  0  0
 14 59  1  0  0  0  0
 15 19  1  0  0  0  0
 15 20  1  0  0  0  0
 15 18  1  0  0  0  0
 16 21  1  0  0  0  0
 16 22  1  0  0  0  0
 16 60  1  0  0  0  0
 17 61  1  0  0  0  0
 17 62  1  0  0  0  0
 17 63  1  0  0  0  0
 18 64  1  0  0  0  0
 18 65  1  0  0  0  0
 19 23  2  0  0  0  0
 19 24  1  0  0  0  0
 20 66  1  0  0  0  0
 20 67  1  0  0  0  0
 20 68  1  0  0  0  0
 21 69  1  0  0  0  0
 22 23  1  0  0  0  0
 22 70  1  0  0  0  0
 22 71  1  0  0  0  0
 23 25  1  0  0  0  0
 24 26  1  0  0  0  0
 24 72  1  0  0  0  0
 24 73  1  0  0  0  0
 25 27  1  0  0  0  0
 25 28  1  0  0  0  0
 25 29  1  0  0  0  0
 26 27  1  0  0  0  0
 26 74  1  0  0  0  0
 26 75  1  0  0  0  0
 27 30  1  0  0  0  0
 27 76  1  0  0  0  0
 28 31  1  0  0  0  0
 28 77  1  0  0  0  0
 28 78  1  0  0  0  0
 29 79  1  0  0  0  0
 29 80  1  0  0  0  0
 29 81  1  0  0  0  0
 30 32  1  0  0  0  0
 30 33  1  0  0  0  0
 30 34  1  0  0  0  0
 31 32  1  0  0  0  0
 31 82  1  0  0  0  0
 31 83  1  0  0  0  0
 32 35  1  0  0  0  0
 32 84  1  0  0  0  0
 33 85  1  0  0  0  0
 33 86  1  0  0  0  0
 33 87  1  0  0  0  0
 34 88  1  0  0  0  0
 34 89  1  0  0  0  0
 34 90  1  0  0  0  0
 35 36  1  0  0  0  0
 36 37  2  0  0  0  0
 36 38  1  0  0  0  0
 38 39  1  0  0  0  0
 38 91  1  0  0  0  0
 38 92  1  0  0  0  0
 39 40  2  0  0  0  0
 39 41  1  0  0  0  0
 41 42  1  0  0  0  0
 42 93  1  0  0  0  0
 42 94  1  0  0  0  0
 42 95  1  0  0  0  0
M  CHG  1   3  -1
M  END
>  <Code-name>
114

>  <Compound>
officimalonic acids H

>  <Specie>
Fomitopsis officinalis

>  <Reference>
GrÃ¼ndemann (2020)

>  <Organism>
N/A

>  <Smiles>
C[C@H](CCC([C@H](C)C(O)=O)=C)[C@@H](CC1)[C@@](C)([C@@H](C2)O)[C@]1(C)C(CC1)=C2[C@@](C)(CC2)[C@@H]1C(C)(C)[C@@H]2OC(CC(OC)=O)=O

>  <MMFF94 Energy>
108.9

>  <Total Molweight>
586.807

>  <Molweight>
586.807

>  <Monoisotopic Mass>
586.386955

>  <cLogP>
6.6688

>  <cLogS>
-6.139

>  <H-Acceptors>
7

>  <H-Donors>
2

>  <Total Surface Area>
443.44

>  <Relative PSA>
0.1924

>  <Polar Surface Area>
110.13

>  <Druglikeness>
-20.47

>  <Mutagenic>
none

>  <Tumorigenic>
none

>  <Reproductive Effective>
none

>  <Irritant>
high

>  <Nasty Functions>


>  <Shape Index>
0.52381

>  <Molecular Flexibility>
0.39514

>  <Molecular Complexity>
1.0349

>  <Fragments>
1

>  <Non-H Atoms>
42

>  <Non-C/H Atoms>
7

>  <Metal-Atoms>
0

>  <Electronegative Atoms>
7

>  <Stereo Centers>
9

>  <Rotatable Bonds>
11

>  <Rings Closures>
4

>  <Small Rings>
4

>  <Aromatic Rings>
0

>  <Aromatic Atoms>
0

>  <sp3-Atoms>
32

>  <Symmetric atoms>
1

>  <Amides>
0

>  <Amines>
0

>  <Alkyl-Amines>
0

>  <Aromatic Amines>
0

>  <Aromatic Nitrogens>
0

>  <Basic Nitrogens>
0

>  <Acidic Oxygens>
1

>  <Stereo Configuration>
this enantiomer

> <Gold.Version>
5.8.1

> <Gold.Id.Protein>
ID_2|Prot_COX2_5IKQ_Alig|mol2

> <Gold.Goldscore.Fitness>
0.0000

> <Gold.Goldscore.Internal.Vdw>
-48.9023

> <Gold.Goldscore.Internal.Torsion>
-14.3915

> <Gold.Goldscore.External.Vdw>
-1396.4982

> <Gold.Goldscore.Internal.HBond>
0.0000

> <Gold.Goldscore.External.HBond>
0.0000

> <Gold.Goldscore.Internal.Correction>
-35.0665

> <Gold.Goldscore.Hbonds>
donor molecule, donor type, donor heavy atom, donor atom, acceptor molecule, acceptor atom, score
      P1  H  5703  5712       L1     3  0.74
      P1  H  1361  1366       L1    40  0.34

> <Gold.Goldscore.Internal.Vdw.Weighted>
-48.9023

> <Gold.Goldscore.Internal.Torsion.Weighted>
-14.3915

> <Gold.Goldscore.External.Vdw.Weighted>
-1920.1850

> <Gold.Goldscore.Internal.HBond.Weighted>
0.0000

> <Gold.Goldscore.External.HBond.Weighted>
0.0000

> <Gold.Goldscore.Internal.Correction.Weighted>
-35.0665

> <Gold.Protein.RotatedTorsions>
[ 5077 5068 5067 5065 ] final -151.94 input  179.94 | X-H torsion
[ 5157 5152 5151 5148 ] final  -91.33 input -179.92 | X-H torsion
[ 5185 5176 5175 5173 ] final    1.41 input -179.99 | X-H torsion
[ 5712 5703 5702 5700 ] final  136.40 input  180.00 | X-H torsion
[ 8036 8031 8030 8027 ] final   94.28 input -179.94 | X-H torsion
[ 2749 2745 2743 2740 ] final -141.61 input  -60.05 | X-H torsion
[ 1366 1361 1360 1357 ] final   81.94 input  -60.09 | X-H torsion
[ 2556 2551 2550 2547 ] final   75.44 input   59.97 | X-H torsion

> <Gold.Protein.ActiveResidues>
 PRO86   VAL89   HIS90   LEU93   THR94   ILE112  MET113  TYR115  VAL116  LEU117 
 THR118  SER119  ARG120  SER121  LEU123  ILE124  GLN192  SER194  PHE198  PHE201 
 ALA202  GLN203  PHE205  THR206  PHE209  PHE210  VAL228  ILE341  ILE343  VAL344 
 ILE345  GLU346  ASP347  TYR348  VAL349  GLN350  HIS351  LEU352  SER353  GLY354 
 TYR355  PHE357  LEU359  LYS360  GLU380  PHE381  ASN382  THR383  LEU384  TYR385 
 HIS386  TRP387  LEU390  VAL434  LEU507  ARG513  ALA516  ILE517  PHE518  GLY519 
 GLU520  THR521  MET522  VAL523  GLU524  VAL525  GLY526  ALA527  PRO528  PHE529 
 SER530  LEU531  LYS532  GLY533  LEU534  MET535  COH609 

> <Gold.Protein.RotatedAtoms>
   18.1773    6.8774    1.9220 H   0  0  0  0  0  0  0  0  0  0  0  0  # atno 1366 bound_to 1361
    5.1381  -10.1848    7.2113 H   0  0  0  0  0  0  0  0  0  0  0  0  # atno 2556 bound_to 2551
   -2.8285   -0.5221    0.7247 H   0  0  0  0  0  0  0  0  0  0  0  0  # atno 2749 bound_to 2745
    2.1357   -1.8950    3.7427 H   0  0  0  0  0  0  0  0  0  0  0  0  # atno 5077 bound_to 5068
   11.4071   -1.8523    9.2963 H   0  0  0  0  0  0  0  0  0  0  0  0  # atno 5157 bound_to 5152
   16.0329   -1.0931    4.6954 H   0  0  0  0  0  0  0  0  0  0  0  0  # atno 5185 bound_to 5176
    3.0370   -0.1908    2.3657 H   0  0  0  0  0  0  0  0  0  0  0  0  # atno 5712 bound_to 5703
    4.8371    4.1415    3.2229 H   0  0  0  0  0  0  0  0  0  0  0  0  # atno 8036 bound_to 8031
    0.7091   -1.4484    3.9067 LP  0  0  0  0  0  0  0  0  0  0  0  0  # atno 8267 bound_to 5068
    1.2178   -2.9511    4.2937 LP  0  0  0  0  0  0  0  0  0  0  0  0  # atno 8268 bound_to 5068
   12.8710   -1.5113    9.2204 LP  0  0  0  0  0  0  0  0  0  0  0  0  # atno 8279 bound_to 5152
   12.3196   -3.0481    9.2487 LP  0  0  0  0  0  0  0  0  0  0  0  0  # atno 8280 bound_to 5152
   16.4820    0.2815    5.1048 LP  0  0  0  0  0  0  0  0  0  0  0  0  # atno 8281 bound_to 5176
   14.9220   -0.0853    4.7907 LP  0  0  0  0  0  0  0  0  0  0  0  0  # atno 8282 bound_to 5176
    2.0219   -1.1902    2.8448 LP  0  0  0  0  0  0  0  0  0  0  0  0  # atno 8283 bound_to 5703
    1.7045    0.4068    2.7207 LP  0  0  0  0  0  0  0  0  0  0  0  0  # atno 8284 bound_to 5703
    5.5794    5.4152    3.5168 LP  0  0  0  0  0  0  0  0  0  0  0  0  # atno 8309 bound_to 8031
    6.2288    3.9356    3.7527 LP  0  0  0  0  0  0  0  0  0  0  0  0  # atno 8310 bound_to 8031
   -3.7394    0.0908   -0.3038 LP  0  0  0  0  0  0  0  0  0  0  0  0  # atno 8323 bound_to 2745
   -4.0841    0.0817    1.2923 LP  0  0  0  0  0  0  0  0  0  0  0  0  # atno 8324 bound_to 2745
   17.6112    7.8563    2.9145 LP  0  0  0  0  0  0  0  0  0  0  0  0  # atno 8335 bound_to 1361
   18.8421    6.8443    3.2714 LP  0  0  0  0  0  0  0  0  0  0  0  0  # atno 8336 bound_to 1361
    4.8737   -9.1297    8.2511 LP  0  0  0  0  0  0  0  0  0  0  0  0  # atno 8342 bound_to 2551
    4.5100   -8.9283    6.6719 LP  0  0  0  0  0  0  0  0  0  0  0  0  # atno 8343 bound_to 2551

