
116|LMW3_p|sdf|116|dock1
  -GOLD-   6 82223373D 1   1.00000     0.00000

 78 81  0  0  0  0  0  0  0  0  2 V2000
   13.3740    4.4206    4.3261 O   0  0  0  0  0  0  0  0  0  0  0  0
   14.4085    3.8009    4.5095 C   0  0  0  0  0  0  0  0  0  0  0  0
   15.5940    4.3317    4.1543 O   0  5  0  0  0  0  0  0  0  0  0  0
   14.5468    2.4169    5.1119 C   0  0  2  0  0  0  0  0  0  0  0  0
   13.2092    1.6212    5.1590 C   0  0  2  0  0  0  0  0  0  0  0  0
   15.1674    2.5354    6.5214 C   0  0  0  0  0  0  0  0  0  0  0  0
   12.4356    1.3192    3.8180 C   0  0  2  0  0  0  0  0  0  0  0  0
   12.1608    2.1962    6.1362 C   0  0  0  0  0  0  0  0  0  0  0  0
   16.6619    2.1962    6.5526 C   0  0  0  0  0  0  0  0  0  0  0  0
   11.0893    2.0908    3.9538 C   0  0  1  0  0  0  0  0  0  0  0  0
   12.1180   -0.2004    3.7892 C   0  0  0  0  0  0  0  0  0  0  0  0
   13.2077    1.6787    2.5338 C   0  0  0  0  0  0  0  0  0  0  0  0
   10.8011    2.0473    5.4629 C   0  0  0  0  0  0  0  0  0  0  0  0
   17.4464    3.1388    5.6818 C   0  0  0  0  0  0  0  0  0  0  0  0
   11.2567    3.4462    3.5344 O   0  0  0  0  0  0  0  0  0  0  0  0
    9.9199    1.5251    3.1528 C   0  0  0  0  0  0  0  0  0  0  0  0
   11.1509   -0.5870    2.6720 C   0  0  0  0  0  0  0  0  0  0  0  0
   18.1667    2.8328    4.5850 C   0  0  0  0  0  0  0  0  0  0  0  0
    9.9340    0.3182    2.5383 C   0  0  0  0  0  0  0  0  0  0  0  0
    8.7142    2.4230    3.0940 C   0  0  0  0  0  0  0  0  0  0  0  0
   18.2835    1.4587    3.9846 C   0  0  0  0  0  0  0  0  0  0  0  0
   18.9274    3.9003    3.8427 C   0  0  0  0  0  0  0  0  0  0  0  0
    8.7484   -0.2137    1.6601 C   0  0  2  0  0  0  0  0  0  0  0  0
    7.4327    1.6962    2.7229 C   0  0  0  0  0  0  0  0  0  0  0  0
    7.6068    0.8699    1.4312 C   0  0  2  0  0  0  0  0  0  0  0  0
    8.1519   -1.4626    2.3618 C   0  0  0  0  0  0  0  0  0  0  0  0
    9.3654   -0.6142    0.2964 C   0  0  0  0  0  0  0  0  0  0  0  0
    6.2145    0.3190    0.8818 C   0  0  0  0  0  0  0  0  0  0  0  0
    6.8823   -2.0118    1.7149 C   0  0  0  0  0  0  0  0  0  0  0  0
    5.7727   -0.9683    1.6277 C   0  0  1  0  0  0  0  0  0  0  0  0
    5.0970    1.3940    0.9944 C   0  0  0  0  0  0  0  0  0  0  0  0
    6.2896    0.0164   -0.6397 C   0  0  0  0  0  0  0  0  0  0  0  0
    5.3547   -0.6899    2.9639 O   0  0  0  0  0  0  0  0  0  0  0  0
   15.1920    1.8538    4.4704 H   0  0  0  0  0  0  0  0  0  0  0  0
   13.6254    0.6932    5.4911 H   0  0  0  0  0  0  0  0  0  0  0  0
   14.6526    1.8649    7.1772 H   0  0  0  0  0  0  0  0  0  0  0  0
   15.0659    3.5551    6.8293 H   0  0  0  0  0  0  0  0  0  0  0  0
   12.3648    3.2286    6.3293 H   0  0  0  0  0  0  0  0  0  0  0  0
   12.1840    1.6781    7.0720 H   0  0  0  0  0  0  0  0  0  0  0  0
   16.8011    1.1957    6.1996 H   0  0  0  0  0  0  0  0  0  0  0  0
   17.0121    2.2905    7.5592 H   0  0  0  0  0  0  0  0  0  0  0  0
   11.6829   -0.4756    4.7272 H   0  0  0  0  0  0  0  0  0  0  0  0
   13.0379   -0.7162    3.6089 H   0  0  0  0  0  0  0  0  0  0  0  0
   13.4069    2.7299    2.5199 H   0  0  0  0  0  0  0  0  0  0  0  0
   12.6203    1.4156    1.6791 H   0  0  0  0  0  0  0  0  0  0  0  0
   14.1321    1.1402    2.5109 H   0  0  0  0  0  0  0  0  0  0  0  0
   10.1536    2.8512    5.7442 H   0  0  0  0  0  0  0  0  0  0  0  0
   10.3111    1.1404    5.7496 H   0  0  0  0  0  0  0  0  0  0  0  0
   17.4313    4.1337    5.9557 H   0  0  0  0  0  0  0  0  0  0  0  0
   10.5248    3.9832    3.8762 H   0  0  0  0  0  0  0  0  0  0  0  0
   10.8061   -1.5824    2.8599 H   0  0  0  0  0  0  0  0  0  0  0  0
   11.6966   -0.4948    1.7562 H   0  0  0  0  0  0  0  0  0  0  0  0
    8.8947    3.1845    2.3643 H   0  0  0  0  0  0  0  0  0  0  0  0
    8.5741    2.8252    4.0755 H   0  0  0  0  0  0  0  0  0  0  0  0
   17.3092    1.0262    3.8916 H   0  0  0  0  0  0  0  0  0  0  0  0
   18.8881    0.8432    4.6175 H   0  0  0  0  0  0  0  0  0  0  0  0
   18.7362    1.5293    3.0177 H   0  0  0  0  0  0  0  0  0  0  0  0
   18.5027    4.0293    2.8691 H   0  0  0  0  0  0  0  0  0  0  0  0
   19.9524    3.6079    3.7488 H   0  0  0  0  0  0  0  0  0  0  0  0
   18.8675    4.8220    4.3829 H   0  0  0  0  0  0  0  0  0  0  0  0
    6.6552    2.4161    2.5734 H   0  0  0  0  0  0  0  0  0  0  0  0
    7.1828    1.0269    3.5195 H   0  0  0  0  0  0  0  0  0  0  0  0
    7.9453    1.4901    0.6276 H   0  0  0  0  0  0  0  0  0  0  0  0
    7.9236   -1.1995    3.3735 H   0  0  0  0  0  0  0  0  0  0  0  0
    8.8891   -2.2342    2.2841 H   0  0  0  0  0  0  0  0  0  0  0  0
    8.5871   -0.9205   -0.3710 H   0  0  0  0  0  0  0  0  0  0  0  0
   10.0516   -1.4227    0.4391 H   0  0  0  0  0  0  0  0  0  0  0  0
    9.8835    0.2239   -0.1206 H   0  0  0  0  0  0  0  0  0  0  0  0
    6.5310   -2.8386    2.2962 H   0  0  0  0  0  0  0  0  0  0  0  0
    7.1283   -2.3089    0.7169 H   0  0  0  0  0  0  0  0  0  0  0  0
    4.9598   -1.3533    1.0482 H   0  0  0  0  0  0  0  0  0  0  0  0
    4.8927    1.5893    2.0264 H   0  0  0  0  0  0  0  0  0  0  0  0
    4.2089    1.0367    0.5165 H   0  0  0  0  0  0  0  0  0  0  0  0
    5.4203    2.2959    0.5179 H   0  0  0  0  0  0  0  0  0  0  0  0
    5.3477    0.2411   -1.0950 H   0  0  0  0  0  0  0  0  0  0  0  0
    6.5189   -1.0184   -0.7866 H   0  0  0  0  0  0  0  0  0  0  0  0
    7.0539    0.6179   -1.0856 H   0  0  0  0  0  0  0  0  0  0  0  0
    4.4075   -0.4814    2.9695 H   0  0  0  0  0  0  0  0  0  0  0  0
  1  2  2  0  0  0  0
  2  3  1  0  0  0  0
  2  4  1  0  0  0  0
  4  5  1  0  0  0  0
  4  6  1  0  0  0  0
  4 34  1  0  0  0  0
  5  7  1  0  0  0  0
  5  8  1  0  0  0  0
  5 35  1  0  0  0  0
  6  9  1  0  0  0  0
  6 36  1  0  0  0  0
  6 37  1  0  0  0  0
  7 10  1  0  0  0  0
  7 11  1  0  0  0  0
  7 12  1  0  0  0  0
  8 13  1  0  0  0  0
  8 38  1  0  0  0  0
  8 39  1  0  0  0  0
  9 14  1  0  0  0  0
  9 40  1  0  0  0  0
  9 41  1  0  0  0  0
 10 15  1  0  0  0  0
 10 16  1  0  0  0  0
 10 13  1  0  0  0  0
 11 17  1  0  0  0  0
 11 42  1  0  0  0  0
 11 43  1  0  0  0  0
 12 44  1  0  0  0  0
 12 45  1  0  0  0  0
 12 46  1  0  0  0  0
 13 47  1  0  0  0  0
 13 48  1  0  0  0  0
 14 18  2  0  0  0  0
 14 49  1  0  0  0  0
 15 50  1  0  0  0  0
 16 19  2  0  0  0  0
 16 20  1  0  0  0  0
 17 19  1  0  0  0  0
 17 51  1  0  0  0  0
 17 52  1  0  0  0  0
 18 21  1  0  0  0  0
 18 22  1  0  0  0  0
 19 23  1  0  0  0  0
 20 24  1  0  0  0  0
 20 53  1  0  0  0  0
 20 54  1  0  0  0  0
 21 55  1  0  0  0  0
 21 56  1  0  0  0  0
 21 57  1  0  0  0  0
 22 58  1  0  0  0  0
 22 59  1  0  0  0  0
 22 60  1  0  0  0  0
 23 25  1  0  0  0  0
 23 26  1  0  0  0  0
 23 27  1  0  0  0  0
 24 25  1  0  0  0  0
 24 61  1  0  0  0  0
 24 62  1  0  0  0  0
 25 28  1  0  0  0  0
 25 63  1  0  0  0  0
 26 29  1  0  0  0  0
 26 64  1  0  0  0  0
 26 65  1  0  0  0  0
 27 66  1  0  0  0  0
 27 67  1  0  0  0  0
 27 68  1  0  0  0  0
 28 30  1  0  0  0  0
 28 31  1  0  0  0  0
 28 32  1  0  0  0  0
 29 30  1  0  0  0  0
 29 69  1  0  0  0  0
 29 70  1  0  0  0  0
 30 33  1  0  0  0  0
 30 71  1  0  0  0  0
 31 72  1  0  0  0  0
 31 73  1  0  0  0  0
 31 74  1  0  0  0  0
 32 75  1  0  0  0  0
 32 76  1  0  0  0  0
 32 77  1  0  0  0  0
 33 78  1  0  0  0  0
M  CHG  1   3  -1
M  END
>  <Code-name>
116

>  <Compound>
Fomitopsina Alanostanoids

>  <Specie>
Inonotus obliquus.

>  <Reference>
GrÃ¼ndemann (2020)

>  <Organism>
Anti-inflammatory
Activities

>  <Smiles>
C[C@@](CCC1=C2CC[C@H](C3(C)C)[C@]1(C)CC[C@H]3O)([C@H](CC1)[C@H](CCC=C(C)C)C(O)=O)[C@]12O

>  <MMFF94 Energy>
77.437

>  <Total Molweight>
458.680

>  <Molweight>
458.680

>  <Monoisotopic Mass>
458.339610

>  <cLogP>
5.9904

>  <cLogS>
-5.301

>  <H-Acceptors>
4

>  <H-Donors>
3

>  <Total Surface Area>
346.73

>  <Relative PSA>
0.15095

>  <Polar Surface Area>
77.76

>  <Druglikeness>
-2.3689

>  <Mutagenic>
none

>  <Tumorigenic>
none

>  <Reproductive Effective>
none

>  <Irritant>
none

>  <Nasty Functions>


>  <Shape Index>
0.48485

>  <Molecular Flexibility>
0.31266

>  <Molecular Complexity>
1.0166

>  <Fragments>
1

>  <Non-H Atoms>
33

>  <Non-C/H Atoms>
4

>  <Metal-Atoms>
0

>  <Electronegative Atoms>
4

>  <Stereo Centers>
7

>  <Rotatable Bonds>
5

>  <Rings Closures>
4

>  <Small Rings>
4

>  <Aromatic Rings>
0

>  <Aromatic Atoms>
0

>  <sp3-Atoms>
27

>  <Symmetric atoms>
2

>  <Amides>
0

>  <Amines>
0

>  <Alkyl-Amines>
0

>  <Aromatic Amines>
0

>  <Aromatic Nitrogens>
0

>  <Basic Nitrogens>
0

>  <Acidic Oxygens>
1

>  <Stereo Configuration>
this enantiomer

> <Gold.Version>
5.8.1

> <Gold.Id.Protein>
ID_2|Prot_COX2_5IKQ_Alig|mol2

> <Gold.Goldscore.Fitness>
-18.6696

> <Gold.Goldscore.Internal.Vdw>
-29.7457

> <Gold.Goldscore.Internal.Torsion>
-9.9029

> <Gold.Goldscore.External.Vdw>
-13.8761

> <Gold.Goldscore.Internal.HBond>
0.0000

> <Gold.Goldscore.External.HBond>
3.2778

> <Gold.Goldscore.Internal.Correction>
-36.7809

> <Gold.Goldscore.Hbonds>
donor molecule, donor type, donor heavy atom, donor atom, acceptor molecule, acceptor atom, score
      P1  H  1374  1386       L1     3  0.20
      L1  H    33    78       P1  5703  0.66

> <Gold.Goldscore.Internal.Vdw.Weighted>
-29.7457

> <Gold.Goldscore.Internal.Torsion.Weighted>
-9.9029

> <Gold.Goldscore.External.Vdw.Weighted>
-19.0797

> <Gold.Goldscore.Internal.HBond.Weighted>
0.0000

> <Gold.Goldscore.External.HBond.Weighted>
3.2778

> <Gold.Goldscore.Internal.Correction.Weighted>
-36.7809

> <Gold.Protein.RotatedTorsions>
[ 5077 5068 5067 5065 ] final  171.68 input  179.94 | X-H torsion
[ 5157 5152 5151 5148 ] final  177.69 input -179.92 | X-H torsion
[ 5185 5176 5175 5173 ] final   54.49 input -179.99 | X-H torsion
[ 5712 5703 5702 5700 ] final -124.28 input  180.00 | X-H torsion
[ 8036 8031 8030 8027 ] final   87.41 input -179.94 | X-H torsion
[ 2749 2745 2743 2740 ] final -141.13 input  -60.05 | X-H torsion
[ 1366 1361 1360 1357 ] final -135.05 input  -60.09 | X-H torsion
[ 2556 2551 2550 2547 ] final  160.40 input   59.97 | X-H torsion

> <Gold.Protein.ActiveResidues>
 PRO86   VAL89   HIS90   LEU93   THR94   ILE112  MET113  TYR115  VAL116  LEU117 
 THR118  SER119  ARG120  SER121  LEU123  ILE124  GLN192  SER194  PHE198  PHE201 
 ALA202  GLN203  PHE205  THR206  PHE209  PHE210  VAL228  ILE341  ILE343  VAL344 
 ILE345  GLU346  ASP347  TYR348  VAL349  GLN350  HIS351  LEU352  SER353  GLY354 
 TYR355  PHE357  LEU359  LYS360  GLU380  PHE381  ASN382  THR383  LEU384  TYR385 
 HIS386  TRP387  LEU390  VAL434  LEU507  ARG513  ALA516  ILE517  PHE518  GLY519 
 GLU520  THR521  MET522  VAL523  GLU524  VAL525  GLY526  ALA527  PRO528  PHE529 
 SER530  LEU531  LYS532  GLY533  LEU534  MET535  COH609 

> <Gold.Protein.RotatedAtoms>
   18.6245    7.1492    3.3267 H   0  0  0  0  0  0  0  0  0  0  0  0  # atno 1366 bound_to 1361
    4.6852   -9.4387    6.5966 H   0  0  0  0  0  0  0  0  0  0  0  0  # atno 2556 bound_to 2551
   -2.8299   -0.5222    0.7312 H   0  0  0  0  0  0  0  0  0  0  0  0  # atno 2749 bound_to 2745
    1.8483   -1.4995    3.6804 H   0  0  0  0  0  0  0  0  0  0  0  0  # atno 5077 bound_to 5068
   12.4279   -1.3800    9.2152 H   0  0  0  0  0  0  0  0  0  0  0  0  # atno 5157 bound_to 5152
   15.3472   -0.9404    4.6476 H   0  0  0  0  0  0  0  0  0  0  0  0  # atno 5185 bound_to 5176
    2.0245    0.4197    2.5787 H   0  0  0  0  0  0  0  0  0  0  0  0  # atno 5712 bound_to 5703
    4.8045    4.2292    3.2109 H   0  0  0  0  0  0  0  0  0  0  0  0  # atno 8036 bound_to 8031
    0.4852   -1.9429    4.1351 LP  0  0  0  0  0  0  0  0  0  0  0  0  # atno 8267 bound_to 5068
    1.7860   -2.9301    4.1398 LP  0  0  0  0  0  0  0  0  0  0  0  0  # atno 8268 bound_to 5068
   12.7454   -2.8511    9.2149 LP  0  0  0  0  0  0  0  0  0  0  0  0  # atno 8279 bound_to 5152
   11.2242   -2.2732    9.3511 LP  0  0  0  0  0  0  0  0  0  0  0  0  # atno 8280 bound_to 5152
   16.7564   -0.4939    4.9187 LP  0  0  0  0  0  0  0  0  0  0  0  0  # atno 8281 bound_to 5176
   15.4709    0.5066    5.0343 LP  0  0  0  0  0  0  0  0  0  0  0  0  # atno 8282 bound_to 5176
    3.2031   -0.4967    2.4056 LP  0  0  0  0  0  0  0  0  0  0  0  0  # atno 8283 bound_to 5703
    1.7386   -1.0194    2.9044 LP  0  0  0  0  0  0  0  0  0  0  0  0  # atno 8284 bound_to 5703
    5.6850    5.3986    3.5535 LP  0  0  0  0  0  0  0  0  0  0  0  0  # atno 8309 bound_to 8031
    6.1624    3.8470    3.7304 LP  0  0  0  0  0  0  0  0  0  0  0  0  # atno 8310 bound_to 8031
   -3.7328    0.0873   -0.3065 LP  0  0  0  0  0  0  0  0  0  0  0  0  # atno 8323 bound_to 2745
   -4.0890    0.0852    1.2872 LP  0  0  0  0  0  0  0  0  0  0  0  0  # atno 8324 bound_to 2745
   18.4201    6.5877    1.9457 LP  0  0  0  0  0  0  0  0  0  0  0  0  # atno 8335 bound_to 1361
   17.4983    7.7877    2.5598 LP  0  0  0  0  0  0  0  0  0  0  0  0  # atno 8336 bound_to 1361
    5.2917  -10.2164    7.7331 LP  0  0  0  0  0  0  0  0  0  0  0  0  # atno 8342 bound_to 2551
    4.6337   -8.7343    7.9253 LP  0  0  0  0  0  0  0  0  0  0  0  0  # atno 8343 bound_to 2551

