
117|LMW3_p|sdf|117|dock66
  -GOLD-   6 922 0203D 1   1.00000     0.00000

 87 90  0  0  0  0  0  0  0  0  2 V2000
   12.3964   -8.2564    5.0607 O   0  0  0  0  0  0  0  0  0  0  0  0
   12.5303   -7.1550    4.5228 C   0  0  0  0  0  0  0  0  0  0  0  0
   11.4942   -6.5913    3.5377 C   0  0  0  0  0  0  0  0  0  0  0  0
   13.8023   -6.3730    4.7310 C   0  0  0  0  0  0  0  0  0  0  0  0
   11.3526   -5.0434    3.7462 C   0  0  1  0  0  0  0  0  0  0  0  0
   10.1353   -7.2694    3.8562 C   0  0  0  0  0  0  0  0  0  0  0  0
   11.8939   -7.0305    2.1213 C   0  0  0  0  0  0  0  0  0  0  0  0
   13.5068   -4.9124    5.0307 C   0  0  0  0  0  0  0  0  0  0  0  0
   12.6762   -4.2113    3.9257 C   0  0  2  0  0  0  0  0  0  0  0  0
   10.4459   -4.3576    2.7137 C   0  0  0  0  0  0  0  0  0  0  0  0
   12.3008   -2.7544    4.3176 C   0  0  0  0  0  0  0  0  0  0  0  0
   13.5341   -4.0789    2.6455 C   0  0  0  0  0  0  0  0  0  0  0  0
   10.0596   -2.9504    3.1681 C   0  0  0  0  0  0  0  0  0  0  0  0
   11.1237   -2.1932    3.9326 C   0  0  0  0  0  0  0  0  0  0  0  0
   13.3401   -1.9654    5.1206 C   0  0  0  0  0  0  0  0  0  0  0  0
   10.7769   -0.7619    4.3597 C   0  0  1  0  0  0  0  0  0  0  0  0
   13.0105   -0.5010    5.4709 C   0  0  0  0  0  0  0  0  0  0  0  0
   12.0791    0.1329    4.4311 C   0  0  2  0  0  0  0  0  0  0  0  0
    9.8451    0.1249    3.4879 C   0  0  2  0  0  0  0  0  0  0  0  0
   10.0469   -0.9423    5.7347 C   0  0  0  0  0  0  0  0  0  0  0  0
   11.4824    1.5280    4.7923 C   0  0  2  0  0  0  0  0  0  0  0  0
   12.8635    0.2284    3.0854 C   0  0  0  0  0  0  0  0  0  0  0  0
   10.1566   -0.0026    2.0880 O   0  0  0  0  0  0  0  0  0  0  0  0
   10.1616    1.5683    3.9526 C   0  0  0  0  0  0  0  0  0  0  0  0
   12.3356    2.8061    4.5656 C   0  0  1  0  0  0  0  0  0  0  0  0
    9.1710    0.3587    1.2227 C   0  0  0  0  0  0  0  0  0  0  0  0
   11.4734    4.0495    4.7094 C   0  0  0  0  0  0  0  0  0  0  0  0
   13.5702    2.9781    5.4702 C   0  0  0  0  0  0  0  0  0  0  0  0
    8.3177    1.2090    1.4294 O   0  0  0  0  0  0  0  0  0  0  0  0
    9.2837   -0.4416   -0.0382 C   0  0  0  0  0  0  0  0  0  0  0  0
   11.2784    4.6922    5.7271 O   0  0  0  0  0  0  0  0  0  0  0  0
   10.9178    4.4302    3.5428 O   0  5  0  0  0  0  0  0  0  0  0  0
   14.9233    2.8786    4.7490 C   0  0  0  0  0  0  0  0  0  0  0  0
   16.0914    3.0199    5.7103 C   0  0  0  0  0  0  0  0  0  0  0  0
   15.8764    2.9698    7.0374 C   0  0  0  0  0  0  0  0  0  0  0  0
   17.4645    3.2396    5.0795 C   0  0  0  0  0  0  0  0  0  0  0  0
   17.5025    4.3209    3.9921 C   0  0  0  0  0  0  0  0  0  0  0  0
   18.0156    1.9247    4.5196 C   0  0  0  0  0  0  0  0  0  0  0  0
   14.3984   -6.4337    3.8445 H   0  0  0  0  0  0  0  0  0  0  0  0
   14.3244   -6.7914    5.5661 H   0  0  0  0  0  0  0  0  0  0  0  0
   10.8792   -5.0272    4.7056 H   0  0  0  0  0  0  0  0  0  0  0  0
    9.8570   -7.0533    4.8665 H   0  0  0  0  0  0  0  0  0  0  0  0
   10.2266   -8.3280    3.7301 H   0  0  0  0  0  0  0  0  0  0  0  0
    9.3852   -6.8945    3.1916 H   0  0  0  0  0  0  0  0  0  0  0  0
   11.6605   -6.2506    1.4268 H   0  0  0  0  0  0  0  0  0  0  0  0
   11.3549   -7.9163    1.8571 H   0  0  0  0  0  0  0  0  0  0  0  0
   12.9447   -7.2306    2.0931 H   0  0  0  0  0  0  0  0  0  0  0  0
   14.4365   -4.3933    5.1365 H   0  0  0  0  0  0  0  0  0  0  0  0
   12.9237   -4.8864    5.9276 H   0  0  0  0  0  0  0  0  0  0  0  0
    9.5574   -4.9402    2.5875 H   0  0  0  0  0  0  0  0  0  0  0  0
   10.9804   -4.2814    1.7900 H   0  0  0  0  0  0  0  0  0  0  0  0
   13.6607   -5.0433    2.1995 H   0  0  0  0  0  0  0  0  0  0  0  0
   14.4920   -3.6744    2.8982 H   0  0  0  0  0  0  0  0  0  0  0  0
   13.0433   -3.4274    1.9529 H   0  0  0  0  0  0  0  0  0  0  0  0
    9.1982   -3.0329    3.7975 H   0  0  0  0  0  0  0  0  0  0  0  0
    9.8897   -2.3906    2.2721 H   0  0  0  0  0  0  0  0  0  0  0  0
   14.2476   -1.9624    4.5536 H   0  0  0  0  0  0  0  0  0  0  0  0
   13.3905   -2.4658    6.0650 H   0  0  0  0  0  0  0  0  0  0  0  0
   13.9208    0.0601    5.5094 H   0  0  0  0  0  0  0  0  0  0  0  0
   12.5127   -0.4876    6.4180 H   0  0  0  0  0  0  0  0  0  0  0  0
    8.8171   -0.1498    3.6000 H   0  0  0  0  0  0  0  0  0  0  0  0
    9.9185    0.0135    6.1983 H   0  0  0  0  0  0  0  0  0  0  0  0
   10.6344   -1.5712    6.3705 H   0  0  0  0  0  0  0  0  0  0  0  0
    9.0896   -1.3923    5.5739 H   0  0  0  0  0  0  0  0  0  0  0  0
   11.3798    1.5814    5.8560 H   0  0  0  0  0  0  0  0  0  0  0  0
   12.9158   -0.7401    2.6336 H   0  0  0  0  0  0  0  0  0  0  0  0
   13.8535    0.5878    3.2743 H   0  0  0  0  0  0  0  0  0  0  0  0
   12.3590    0.9030    2.4256 H   0  0  0  0  0  0  0  0  0  0  0  0
    9.3593    1.9399    4.5554 H   0  0  0  0  0  0  0  0  0  0  0  0
   10.2783    2.2137    3.1071 H   0  0  0  0  0  0  0  0  0  0  0  0
   12.7133    2.6779    3.5727 H   0  0  0  0  0  0  0  0  0  0  0  0
   13.5386    2.2182    6.2228 H   0  0  0  0  0  0  0  0  0  0  0  0
   13.5147    3.9708    5.8659 H   0  0  0  0  0  0  0  0  0  0  0  0
    9.6256   -1.4283    0.1950 H   0  0  0  0  0  0  0  0  0  0  0  0
    9.9803    0.0304   -0.6992 H   0  0  0  0  0  0  0  0  0  0  0  0
    8.3257   -0.4986   -0.5113 H   0  0  0  0  0  0  0  0  0  0  0  0
   14.9826    3.6563    4.0165 H   0  0  0  0  0  0  0  0  0  0  0  0
   14.9850    1.9125    4.2931 H   0  0  0  0  0  0  0  0  0  0  0  0
   14.9222    2.8181    7.4001 H   0  0  0  0  0  0  0  0  0  0  0  0
   16.6655    3.0830    7.6927 H   0  0  0  0  0  0  0  0  0  0  0  0
   18.0839    3.5975    5.8752 H   0  0  0  0  0  0  0  0  0  0  0  0
   18.5104    4.6525    3.8539 H   0  0  0  0  0  0  0  0  0  0  0  0
   16.8926    5.1480    4.2902 H   0  0  0  0  0  0  0  0  0  0  0  0
   17.1309    3.9165    3.0738 H   0  0  0  0  0  0  0  0  0  0  0  0
   18.9878    2.0930    4.1056 H   0  0  0  0  0  0  0  0  0  0  0  0
   17.3609    1.5600    3.7559 H   0  0  0  0  0  0  0  0  0  0  0  0
   18.0832    1.2025    5.3063 H   0  0  0  0  0  0  0  0  0  0  0  0
  1  2  2  0  0  0  0
  2  3  1  0  0  0  0
  2  4  1  0  0  0  0
  3  5  1  0  0  0  0
  3  6  1  0  0  0  0
  3  7  1  0  0  0  0
  4  8  1  0  0  0  0
  4 39  1  0  0  0  0
  4 40  1  0  0  0  0
  5  9  1  0  0  0  0
  5 10  1  0  0  0  0
  5 41  1  0  0  0  0
  6 42  1  0  0  0  0
  6 43  1  0  0  0  0
  6 44  1  0  0  0  0
  7 45  1  0  0  0  0
  7 46  1  0  0  0  0
  7 47  1  0  0  0  0
  8  9  1  0  0  0  0
  8 48  1  0  0  0  0
  8 49  1  0  0  0  0
  9 11  1  0  0  0  0
  9 12  1  0  0  0  0
 10 13  1  0  0  0  0
 10 50  1  0  0  0  0
 10 51  1  0  0  0  0
 11 14  2  0  0  0  0
 11 15  1  0  0  0  0
 12 52  1  0  0  0  0
 12 53  1  0  0  0  0
 12 54  1  0  0  0  0
 13 14  1  0  0  0  0
 13 55  1  0  0  0  0
 13 56  1  0  0  0  0
 14 16  1  0  0  0  0
 15 17  1  0  0  0  0
 15 57  1  0  0  0  0
 15 58  1  0  0  0  0
 16 18  1  0  0  0  0
 16 19  1  0  0  0  0
 16 20  1  0  0  0  0
 17 18  1  0  0  0  0
 17 59  1  0  0  0  0
 17 60  1  0  0  0  0
 18 21  1  0  0  0  0
 18 22  1  0  0  0  0
 19 23  1  0  0  0  0
 19 24  1  0  0  0  0
 19 61  1  0  0  0  0
 20 62  1  0  0  0  0
 20 63  1  0  0  0  0
 20 64  1  0  0  0  0
 21 25  1  0  0  0  0
 21 24  1  0  0  0  0
 21 65  1  0  0  0  0
 22 66  1  0  0  0  0
 22 67  1  0  0  0  0
 22 68  1  0  0  0  0
 23 26  1  0  0  0  0
 24 69  1  0  0  0  0
 24 70  1  0  0  0  0
 25 27  1  0  0  0  0
 25 28  1  0  0  0  0
 25 71  1  0  0  0  0
 26 29  2  0  0  0  0
 26 30  1  0  0  0  0
 27 31  2  0  0  0  0
 27 32  1  0  0  0  0
 28 33  1  0  0  0  0
 28 72  1  0  0  0  0
 28 73  1  0  0  0  0
 30 74  1  0  0  0  0
 30 75  1  0  0  0  0
 30 76  1  0  0  0  0
 33 34  1  0  0  0  0
 33 77  1  0  0  0  0
 33 78  1  0  0  0  0
 34 35  2  0  0  0  0
 34 36  1  0  0  0  0
 35 79  1  0  0  0  0
 35 80  1  0  0  0  0
 36 37  1  0  0  0  0
 36 38  1  0  0  0  0
 36 81  1  0  0  0  0
 37 82  1  0  0  0  0
 37 83  1  0  0  0  0
 37 84  1  0  0  0  0
 38 85  1  0  0  0  0
 38 86  1  0  0  0  0
 38 87  1  0  0  0  0
M  CHG  1  32  -1
M  END
>  <Code-name>
117

>  <Compound>
lanostanoids 1 (58)

>  <Specie>
Inonotus obliquus.

>  <Reference>
GrÃ¼ndemann (2020)

>  <Organism>
Anti-inflammatory
Activities

>  <Smiles>
CC(C)C(CC[C@@H]([C@@H](C[C@H]1OC(C)=O)[C@@](C)(CC2)[C@]1(C)C(CC1)=C2[C@@](C)(CC2)[C@@H]1C(C)(C)C2=O)C(O)=O)=C

>  <MMFF94 Energy>
98.52

>  <Total Molweight>
526.755

>  <Molweight>
526.755

>  <Monoisotopic Mass>
526.365825

>  <cLogP>
7.2065

>  <cLogS>
-6.317

>  <H-Acceptors>
5

>  <H-Donors>
1

>  <Total Surface Area>
400.83

>  <Relative PSA>
0.15523

>  <Polar Surface Area>
80.67

>  <Druglikeness>
-7.8542

>  <Mutagenic>
none

>  <Tumorigenic>
none

>  <Reproductive Effective>
none

>  <Irritant>
none

>  <Nasty Functions>


>  <Shape Index>
0.42105

>  <Molecular Flexibility>
0.33487

>  <Molecular Complexity>
1.0415

>  <Fragments>
1

>  <Non-H Atoms>
38

>  <Non-C/H Atoms>
5

>  <Metal-Atoms>
0

>  <Electronegative Atoms>
5

>  <Stereo Centers>
7

>  <Rotatable Bonds>
8

>  <Rings Closures>
4

>  <Small Rings>
4

>  <Aromatic Rings>
0

>  <Aromatic Atoms>
0

>  <sp3-Atoms>
28

>  <Symmetric atoms>
2

>  <Amides>
0

>  <Amines>
0

>  <Alkyl-Amines>
0

>  <Aromatic Amines>
0

>  <Aromatic Nitrogens>
0

>  <Basic Nitrogens>
0

>  <Acidic Oxygens>
1

>  <Stereo Configuration>
this enantiomer

> <Gold.Version>
5.8.1

> <Gold.Id.Protein>
ID_2|Prot_COX2_5IKQ_Alig|mol2

> <Gold.Goldscore.Fitness>
0.0000

> <Gold.Goldscore.Internal.Vdw>
-37.9717

> <Gold.Goldscore.Internal.Torsion>
-14.0566

> <Gold.Goldscore.External.Vdw>
-368.1226

> <Gold.Goldscore.Internal.HBond>
0.0000

> <Gold.Goldscore.External.HBond>
0.0319

> <Gold.Goldscore.Internal.Correction>
-26.9305

> <Gold.Goldscore.Internal.Vdw.Weighted>
-37.9717

> <Gold.Goldscore.Internal.Torsion.Weighted>
-14.0566

> <Gold.Goldscore.External.Vdw.Weighted>
-506.1686

> <Gold.Goldscore.Internal.HBond.Weighted>
0.0000

> <Gold.Goldscore.External.HBond.Weighted>
0.0319

> <Gold.Goldscore.Internal.Correction.Weighted>
-26.9305

> <Gold.Protein.RotatedTorsions>
[ 5077 5068 5067 5065 ] final   78.69 input  179.94 | X-H torsion
[ 5157 5152 5151 5148 ] final -165.86 input -179.92 | X-H torsion
[ 5185 5176 5175 5173 ] final  -29.53 input -179.99 | X-H torsion
[ 5712 5703 5702 5700 ] final  -82.97 input  180.00 | X-H torsion
[ 8036 8031 8030 8027 ] final -141.97 input -179.94 | X-H torsion
[ 2749 2745 2743 2740 ] final   86.20 input  -60.05 | X-H torsion
[ 1366 1361 1360 1357 ] final  110.07 input  -60.09 | X-H torsion
[ 2556 2551 2550 2547 ] final   -6.13 input   59.97 | X-H torsion

> <Gold.Protein.ActiveResidues>
 PRO86   VAL89   HIS90   LEU93   THR94   ILE112  MET113  TYR115  VAL116  LEU117 
 THR118  SER119  ARG120  SER121  LEU123  ILE124  GLN192  SER194  PHE198  PHE201 
 ALA202  GLN203  PHE205  THR206  PHE209  PHE210  VAL228  ILE341  ILE343  VAL344 
 ILE345  GLU346  ASP347  TYR348  VAL349  GLN350  HIS351  LEU352  SER353  GLY354 
 TYR355  PHE357  LEU359  LYS360  GLU380  PHE381  ASN382  THR383  LEU384  TYR385 
 HIS386  TRP387  LEU390  VAL434  LEU507  ARG513  ALA516  ILE517  PHE518  GLY519 
 GLU520  THR521  MET522  VAL523  GLU524  VAL525  GLY526  ALA527  PRO528  PHE529 
 SER530  LEU531  LYS532  GLY533  LEU534  MET535  COH609 

> <Gold.Protein.RotatedAtoms>
   18.4639    6.6837    2.0888 H   0  0  0  0  0  0  0  0  0  0  0  0  # atno 1366 bound_to 1361
    5.0526   -9.6741    8.1046 H   0  0  0  0  0  0  0  0  0  0  0  0  # atno 2556 bound_to 2551
   -3.8149    0.1560   -0.0832 H   0  0  0  0  0  0  0  0  0  0  0  0  # atno 2749 bound_to 2745
    0.7584   -1.6301    4.0067 H   0  0  0  0  0  0  0  0  0  0  0  0  # atno 5077 bound_to 5068
   12.2079   -1.3310    9.2345 H   0  0  0  0  0  0  0  0  0  0  0  0  # atno 5157 bound_to 5152
   16.3899   -0.8973    4.7995 H   0  0  0  0  0  0  0  0  0  0  0  0  # atno 5185 bound_to 5176
    1.6255    0.0692    2.7428 H   0  0  0  0  0  0  0  0  0  0  0  0  # atno 5712 bound_to 5703
    6.1492    4.0663    3.6778 H   0  0  0  0  0  0  0  0  0  0  0  0  # atno 8036 bound_to 8031
    1.3687   -2.9801    4.2647 LP  0  0  0  0  0  0  0  0  0  0  0  0  # atno 8267 bound_to 5068
    2.2076   -1.7365    3.6193 LP  0  0  0  0  0  0  0  0  0  0  0  0  # atno 8268 bound_to 5068
   12.9276   -2.6524    9.2018 LP  0  0  0  0  0  0  0  0  0  0  0  0  # atno 8279 bound_to 5152
   11.3052   -2.5305    9.3411 LP  0  0  0  0  0  0  0  0  0  0  0  0  # atno 8280 bound_to 5152
   16.0446    0.5303    5.1178 LP  0  0  0  0  0  0  0  0  0  0  0  0  # atno 8281 bound_to 5176
   14.9306   -0.5693    4.6527 LP  0  0  0  0  0  0  0  0  0  0  0  0  # atno 8282 bound_to 5176
    3.0749    0.1544    2.3546 LP  0  0  0  0  0  0  0  0  0  0  0  0  # atno 8283 bound_to 5703
    2.3457   -1.2498    2.7583 LP  0  0  0  0  0  0  0  0  0  0  0  0  # atno 8284 bound_to 5703
    4.7155    4.0223    3.2280 LP  0  0  0  0  0  0  0  0  0  0  0  0  # atno 8309 bound_to 8031
    5.5186    5.4187    3.4957 LP  0  0  0  0  0  0  0  0  0  0  0  0  # atno 8310 bound_to 8031
   -3.9454   -0.0137    1.4059 LP  0  0  0  0  0  0  0  0  0  0  0  0  # atno 8323 bound_to 2745
   -2.6966   -0.6260    0.5501 LP  0  0  0  0  0  0  0  0  0  0  0  0  # atno 8324 bound_to 2745
   17.4884    7.7590    2.4837 LP  0  0  0  0  0  0  0  0  0  0  0  0  # atno 8335 bound_to 1361
   18.6220    7.1733    3.5027 LP  0  0  0  0  0  0  0  0  0  0  0  0  # atno 8336 bound_to 1361
    4.4588   -8.6222    7.2073 LP  0  0  0  0  0  0  0  0  0  0  0  0  # atno 8342 bound_to 2551
    5.0271  -10.0468    6.6470 LP  0  0  0  0  0  0  0  0  0  0  0  0  # atno 8343 bound_to 2551

