
118|LMW3_p|sdf|118|dock5
  -GOLD-   6 922 4563D 1   1.00000     0.00000

 83 86  0  0  0  0  0  0  0  0  2 V2000
   11.8941    2.8934    7.7536 O   0  0  0  0  0  0  0  0  0  0  0  0
   12.6084    3.1583    6.8006 C   0  0  0  0  0  0  0  0  0  0  0  0
   12.4906    4.3419    6.1711 O   0  5  0  0  0  0  0  0  0  0  0  0
   13.6847    2.2629    6.2255 C   0  0  1  0  0  0  0  0  0  0  0  0
   13.2787    1.7212    4.8287 C   0  0  2  0  0  0  0  0  0  0  0  0
   15.0207    3.0403    6.1824 C   0  0  0  0  0  0  0  0  0  0  0  0
   11.7622    1.5353    4.5089 C   0  0  2  0  0  0  0  0  0  0  0  0
   13.8722    0.3064    4.5369 C   0  0  0  0  0  0  0  0  0  0  0  0
   16.1634    2.2165    5.5682 C   0  0  0  0  0  0  0  0  0  0  0  0
   11.8214    0.6008    3.2352 C   0  0  1  0  0  0  0  0  0  0  0  0
   10.9850    2.7971    4.1181 C   0  0  0  0  0  0  0  0  0  0  0  0
   11.0421    0.9073    5.7429 C   0  0  0  0  0  0  0  0  0  0  0  0
   12.8269   -0.4817    3.7125 C   0  0  2  0  0  0  0  0  0  0  0  0
   17.4672    2.9929    5.5331 C   0  0  0  0  0  0  0  0  0  0  0  0
   10.4147    0.2158    2.7666 C   0  0  0  0  0  0  0  0  0  0  0  0
   12.4674    1.2748    1.9763 C   0  0  0  0  0  0  0  0  0  0  0  0
    9.5723    2.4464    3.6092 C   0  0  0  0  0  0  0  0  0  0  0  0
   12.2745   -1.4831    4.5645 O   0  0  0  0  0  0  0  0  0  0  0  0
   18.2680    3.0035    6.6136 C   0  0  0  0  0  0  0  0  0  0  0  0
   17.7893    3.7123    4.2260 C   0  0  0  0  0  0  0  0  0  0  0  0
    9.3826    1.0873    2.9245 C   0  0  0  0  0  0  0  0  0  0  0  0
   10.2773   -1.0982    2.0232 C   0  0  0  0  0  0  0  0  0  0  0  0
   18.5551    2.7855    3.2773 C   0  0  0  0  0  0  0  0  0  0  0  0
   18.5568    5.0294    4.3943 C   0  0  0  0  0  0  0  0  0  0  0  0
    7.9407    0.7394    2.4521 C   0  0  2  0  0  0  0  0  0  0  0  0
    8.8529   -1.4926    1.6335 C   0  0  0  0  0  0  0  0  0  0  0  0
    8.0334   -0.2572    1.2371 C   0  0  1  0  0  0  0  0  0  0  0  0
    7.1611    1.9929    1.9741 C   0  0  0  0  0  0  0  0  0  0  0  0
    7.2423    0.1625    3.7074 C   0  0  0  0  0  0  0  0  0  0  0  0
    6.6985   -0.5821    0.4749 C   0  0  0  0  0  0  0  0  0  0  0  0
    5.8080    1.6703    1.3453 C   0  0  0  0  0  0  0  0  0  0  0  0
    5.9539    0.7360    0.1529 C   0  0  0  0  0  0  0  0  0  0  0  0
    5.7595   -1.5548    1.2127 C   0  0  0  0  0  0  0  0  0  0  0  0
    7.0272   -1.2495   -0.8881 C   0  0  0  0  0  0  0  0  0  0  0  0
   13.8096    1.4066    6.8549 H   0  0  0  0  0  0  0  0  0  0  0  0
   13.6676    2.5180    4.2297 H   0  0  0  0  0  0  0  0  0  0  0  0
   15.2920    3.3113    7.1813 H   0  0  0  0  0  0  0  0  0  0  0  0
   14.8746    3.9024    5.5658 H   0  0  0  0  0  0  0  0  0  0  0  0
   14.0696   -0.2028    5.4571 H   0  0  0  0  0  0  0  0  0  0  0  0
   14.7910    0.3900    3.9949 H   0  0  0  0  0  0  0  0  0  0  0  0
   15.8955    1.9453    4.5685 H   0  0  0  0  0  0  0  0  0  0  0  0
   16.3109    1.3493    6.1774 H   0  0  0  0  0  0  0  0  0  0  0  0
   11.5176    3.3094    3.3443 H   0  0  0  0  0  0  0  0  0  0  0  0
   10.8888    3.4178    4.9843 H   0  0  0  0  0  0  0  0  0  0  0  0
   11.7376    0.3121    6.2969 H   0  0  0  0  0  0  0  0  0  0  0  0
   10.2331    0.2920    5.4087 H   0  0  0  0  0  0  0  0  0  0  0  0
   10.6620    1.6872    6.3691 H   0  0  0  0  0  0  0  0  0  0  0  0
   13.2001   -1.0059    2.8576 H   0  0  0  0  0  0  0  0  0  0  0  0
   11.8143    2.0368    1.6051 H   0  0  0  0  0  0  0  0  0  0  0  0
   12.6228    0.5372    1.2170 H   0  0  0  0  0  0  0  0  0  0  0  0
   13.4062    1.7108    2.2474 H   0  0  0  0  0  0  0  0  0  0  0  0
    9.2884    3.2016    2.9064 H   0  0  0  0  0  0  0  0  0  0  0  0
    8.9705    2.3927    4.4922 H   0  0  0  0  0  0  0  0  0  0  0  0
   12.9597   -2.1329    4.7863 H   0  0  0  0  0  0  0  0  0  0  0  0
   17.9894    2.4950    7.4674 H   0  0  0  0  0  0  0  0  0  0  0  0
   19.1611    3.5202    6.5890 H   0  0  0  0  0  0  0  0  0  0  0  0
   16.8394    3.9743    3.8089 H   0  0  0  0  0  0  0  0  0  0  0  0
   10.6739   -1.8719    2.6468 H   0  0  0  0  0  0  0  0  0  0  0  0
   10.8069   -0.9695    1.1024 H   0  0  0  0  0  0  0  0  0  0  0  0
   18.5834    3.2201    2.3000 H   0  0  0  0  0  0  0  0  0  0  0  0
   18.0631    1.8364    3.2315 H   0  0  0  0  0  0  0  0  0  0  0  0
   19.5538    2.6525    3.6376 H   0  0  0  0  0  0  0  0  0  0  0  0
   18.6583    5.5072    3.4424 H   0  0  0  0  0  0  0  0  0  0  0  0
   19.5271    4.8277    4.7975 H   0  0  0  0  0  0  0  0  0  0  0  0
   18.0202    5.6722    5.0606 H   0  0  0  0  0  0  0  0  0  0  0  0
    8.3821   -1.9734    2.4655 H   0  0  0  0  0  0  0  0  0  0  0  0
    8.8983   -2.1568    0.7958 H   0  0  0  0  0  0  0  0  0  0  0  0
    8.5594    0.2745    0.4719 H   0  0  0  0  0  0  0  0  0  0  0  0
    7.7575    2.5054    1.2484 H   0  0  0  0  0  0  0  0  0  0  0  0
    6.9691    2.5911    2.8402 H   0  0  0  0  0  0  0  0  0  0  0  0
    6.2948   -0.2505    3.4305 H   0  0  0  0  0  0  0  0  0  0  0  0
    7.0952    0.9433    4.4241 H   0  0  0  0  0  0  0  0  0  0  0  0
    7.8540   -0.6039    4.1355 H   0  0  0  0  0  0  0  0  0  0  0  0
    5.3505    2.5809    1.0191 H   0  0  0  0  0  0  0  0  0  0  0  0
    5.2041    1.1822    2.0815 H   0  0  0  0  0  0  0  0  0  0  0  0
    4.9756    0.4912   -0.2048 H   0  0  0  0  0  0  0  0  0  0  0  0
    6.5411    1.2536   -0.5766 H   0  0  0  0  0  0  0  0  0  0  0  0
    5.1246   -2.0443    0.5040 H   0  0  0  0  0  0  0  0  0  0  0  0
    5.1601   -1.0104    1.9122 H   0  0  0  0  0  0  0  0  0  0  0  0
    6.3414   -2.2856    1.7345 H   0  0  0  0  0  0  0  0  0  0  0  0
    7.2223   -2.2907   -0.7375 H   0  0  0  0  0  0  0  0  0  0  0  0
    7.8905   -0.7828   -1.3147 H   0  0  0  0  0  0  0  0  0  0  0  0
    6.1954   -1.1347   -1.5512 H   0  0  0  0  0  0  0  0  0  0  0  0
  1  2  2  0  0  0  0
  2  3  1  0  0  0  0
  2  4  1  0  0  0  0
  4  5  1  0  0  0  0
  4  6  1  0  0  0  0
  4 35  1  0  0  0  0
  5  7  1  0  0  0  0
  5  8  1  0  0  0  0
  5 36  1  0  0  0  0
  6  9  1  0  0  0  0
  6 37  1  0  0  0  0
  6 38  1  0  0  0  0
  7 10  1  0  0  0  0
  7 11  1  0  0  0  0
  7 12  1  0  0  0  0
  8 13  1  0  0  0  0
  8 39  1  0  0  0  0
  8 40  1  0  0  0  0
  9 14  1  0  0  0  0
  9 41  1  0  0  0  0
  9 42  1  0  0  0  0
 10 15  1  0  0  0  0
 10 16  1  0  0  0  0
 10 13  1  0  0  0  0
 11 17  1  0  0  0  0
 11 43  1  0  0  0  0
 11 44  1  0  0  0  0
 12 45  1  0  0  0  0
 12 46  1  0  0  0  0
 12 47  1  0  0  0  0
 13 18  1  0  0  0  0
 13 48  1  0  0  0  0
 14 19  2  0  0  0  0
 14 20  1  0  0  0  0
 15 21  2  0  0  0  0
 15 22  1  0  0  0  0
 16 49  1  0  0  0  0
 16 50  1  0  0  0  0
 16 51  1  0  0  0  0
 17 21  1  0  0  0  0
 17 52  1  0  0  0  0
 17 53  1  0  0  0  0
 18 54  1  0  0  0  0
 19 55  1  0  0  0  0
 19 56  1  0  0  0  0
 20 23  1  0  0  0  0
 20 24  1  0  0  0  0
 20 57  1  0  0  0  0
 21 25  1  0  0  0  0
 22 26  1  0  0  0  0
 22 58  1  0  0  0  0
 22 59  1  0  0  0  0
 23 60  1  0  0  0  0
 23 61  1  0  0  0  0
 23 62  1  0  0  0  0
 24 63  1  0  0  0  0
 24 64  1  0  0  0  0
 24 65  1  0  0  0  0
 25 27  1  0  0  0  0
 25 28  1  0  0  0  0
 25 29  1  0  0  0  0
 26 27  1  0  0  0  0
 26 66  1  0  0  0  0
 26 67  1  0  0  0  0
 27 30  1  0  0  0  0
 27 68  1  0  0  0  0
 28 31  1  0  0  0  0
 28 69  1  0  0  0  0
 28 70  1  0  0  0  0
 29 71  1  0  0  0  0
 29 72  1  0  0  0  0
 29 73  1  0  0  0  0
 30 32  1  0  0  0  0
 30 33  1  0  0  0  0
 30 34  1  0  0  0  0
 31 32  1  0  0  0  0
 31 74  1  0  0  0  0
 31 75  1  0  0  0  0
 32 76  1  0  0  0  0
 32 77  1  0  0  0  0
 33 78  1  0  0  0  0
 33 79  1  0  0  0  0
 33 80  1  0  0  0  0
 34 81  1  0  0  0  0
 34 82  1  0  0  0  0
 34 83  1  0  0  0  0
M  CHG  1   3  -1
M  END
>  <Code-name>
118

>  <Compound>
lanostanoids 2

>  <Specie>
Inonotus obliquus.

>  <Reference>
GrÃ¼ndemann (2020)

>  <Organism>
N/A

>  <Smiles>
CC(C)C(CC[C@H]([C@@H](C[C@H]1O)[C@@](C)(CC2)[C@]1(C)C(CC1)=C2[C@]2(C)[C@@H]1C(C)(C)CCC2)C(O)=O)=C

>  <MMFF94 Energy>
112.08

>  <Total Molweight>
470.735

>  <Molweight>
470.735

>  <Monoisotopic Mass>
470.375995

>  <cLogP>
7.4303

>  <cLogS>
-6.255

>  <H-Acceptors>
3

>  <H-Donors>
2

>  <Total Surface Area>
363.18

>  <Relative PSA>
0.10805

>  <Polar Surface Area>
57.53

>  <Druglikeness>
-8.9189

>  <Mutagenic>
none

>  <Tumorigenic>
none

>  <Reproductive Effective>
none

>  <Irritant>
none

>  <Nasty Functions>


>  <Shape Index>
0.44118

>  <Molecular Flexibility>
0.34966

>  <Molecular Complexity>
1.0202

>  <Fragments>
1

>  <Non-H Atoms>
34

>  <Non-C/H Atoms>
3

>  <Metal-Atoms>
0

>  <Electronegative Atoms>
3

>  <Stereo Centers>
7

>  <Rotatable Bonds>
6

>  <Rings Closures>
4

>  <Small Rings>
4

>  <Aromatic Rings>
0

>  <Aromatic Atoms>
0

>  <sp3-Atoms>
28

>  <Symmetric atoms>
2

>  <Amides>
0

>  <Amines>
0

>  <Alkyl-Amines>
0

>  <Aromatic Amines>
0

>  <Aromatic Nitrogens>
0

>  <Basic Nitrogens>
0

>  <Acidic Oxygens>
1

>  <Stereo Configuration>
this enantiomer

> <Gold.Version>
5.8.1

> <Gold.Id.Protein>
ID_2|Prot_COX2_5IKQ_Alig|mol2

> <Gold.Goldscore.Fitness>
-52.0039

> <Gold.Goldscore.Internal.Vdw>
-32.8755

> <Gold.Goldscore.Internal.Torsion>
-7.7201

> <Gold.Goldscore.External.Vdw>
-28.4201

> <Gold.Goldscore.Internal.HBond>
0.0000

> <Gold.Goldscore.External.HBond>
0.0000

> <Gold.Goldscore.Internal.Correction>
-27.6692

> <Gold.Goldscore.Internal.Vdw.Weighted>
-32.8755

> <Gold.Goldscore.Internal.Torsion.Weighted>
-7.7201

> <Gold.Goldscore.External.Vdw.Weighted>
-39.0776

> <Gold.Goldscore.Internal.HBond.Weighted>
0.0000

> <Gold.Goldscore.External.HBond.Weighted>
0.0000

> <Gold.Goldscore.Internal.Correction.Weighted>
-27.6692

> <Gold.Protein.RotatedTorsions>
[ 5077 5068 5067 5065 ] final -157.46 input  179.94 | X-H torsion
[ 5157 5152 5151 5148 ] final  151.86 input -179.92 | X-H torsion
[ 5185 5176 5175 5173 ] final  -40.71 input -179.99 | X-H torsion
[ 5712 5703 5702 5700 ] final  161.58 input  180.00 | X-H torsion
[ 8036 8031 8030 8027 ] final -102.54 input -179.94 | X-H torsion
[ 2749 2745 2743 2740 ] final   -8.84 input  -60.05 | X-H torsion
[ 1366 1361 1360 1357 ] final  -19.67 input  -60.09 | X-H torsion
[ 2556 2551 2550 2547 ] final -158.66 input   59.97 | X-H torsion

> <Gold.Protein.ActiveResidues>
 PRO86   VAL89   HIS90   LEU93   THR94   ILE112  MET113  TYR115  VAL116  LEU117 
 THR118  SER119  ARG120  SER121  LEU123  ILE124  GLN192  SER194  PHE198  PHE201 
 ALA202  GLN203  PHE205  THR206  PHE209  PHE210  VAL228  ILE341  ILE343  VAL344 
 ILE345  GLU346  ASP347  TYR348  VAL349  GLN350  HIS351  LEU352  SER353  GLY354 
 TYR355  PHE357  LEU359  LYS360  GLU380  PHE381  ASN382  THR383  LEU384  TYR385 
 HIS386  TRP387  LEU390  VAL434  LEU507  ARG513  ALA516  ILE517  PHE518  GLY519 
 GLU520  THR521  MET522  VAL523  GLU524  VAL525  GLY526  ALA527  PRO528  PHE529 
 SER530  LEU531  LYS532  GLY533  LEU534  MET535  COH609 

> <Gold.Protein.RotatedAtoms>
   17.6530    7.7355    2.6216 H   0  0  0  0  0  0  0  0  0  0  0  0  # atno 1366 bound_to 1361
    4.5129   -8.9771    6.8473 H   0  0  0  0  0  0  0  0  0  0  0  0  # atno 2556 bound_to 2551
   -4.0659    0.1525    1.0545 H   0  0  0  0  0  0  0  0  0  0  0  0  # atno 2749 bound_to 2745
    2.1086   -1.8259    3.7258 H   0  0  0  0  0  0  0  0  0  0  0  0  # atno 5077 bound_to 5068
   12.7209   -1.5758    9.1880 H   0  0  0  0  0  0  0  0  0  0  0  0  # atno 5157 bound_to 5152
   16.4834   -0.7841    4.8445 H   0  0  0  0  0  0  0  0  0  0  0  0  # atno 5185 bound_to 5176
    2.9014    0.1248    2.3625 H   0  0  0  0  0  0  0  0  0  0  0  0  # atno 5712 bound_to 5703
    6.2507    4.5876    3.7090 H   0  0  0  0  0  0  0  0  0  0  0  0  # atno 8036 bound_to 8031
    0.6542   -1.5113    3.9426 LP  0  0  0  0  0  0  0  0  0  0  0  0  # atno 8267 bound_to 5068
    1.3052   -2.9709    4.2780 LP  0  0  0  0  0  0  0  0  0  0  0  0  # atno 8268 bound_to 5068
   12.3684   -3.0379    9.2447 LP  0  0  0  0  0  0  0  0  0  0  0  0  # atno 8279 bound_to 5152
   11.2508   -1.8523    9.3539 LP  0  0  0  0  0  0  0  0  0  0  0  0  # atno 8280 bound_to 5152
   15.8639    0.5607    5.1024 LP  0  0  0  0  0  0  0  0  0  0  0  0  # atno 8281 bound_to 5176
   14.9991   -0.7356    4.6141 LP  0  0  0  0  0  0  0  0  0  0  0  0  # atno 8282 bound_to 5176
    2.4150   -1.2468    2.7376 LP  0  0  0  0  0  0  0  0  0  0  0  0  # atno 8283 bound_to 5703
    1.4742    0.0846    2.8317 LP  0  0  0  0  0  0  0  0  0  0  0  0  # atno 8284 bound_to 5703
    5.1644    3.5997    3.3867 LP  0  0  0  0  0  0  0  0  0  0  0  0  # atno 8309 bound_to 8031
    4.9478    5.2159    3.2996 LP  0  0  0  0  0  0  0  0  0  0  0  0  # atno 8310 bound_to 8031
   -2.7839   -0.6272    0.9457 LP  0  0  0  0  0  0  0  0  0  0  0  0  # atno 8323 bound_to 2745
   -3.5576   -0.0083   -0.3523 LP  0  0  0  0  0  0  0  0  0  0  0  0  # atno 8324 bound_to 2745
   18.7141    7.0539    3.4422 LP  0  0  0  0  0  0  0  0  0  0  0  0  # atno 8335 bound_to 1361
   18.3664    6.6201    1.9068 LP  0  0  0  0  0  0  0  0  0  0  0  0  # atno 8336 bound_to 1361
    5.2137  -10.2878    7.0817 LP  0  0  0  0  0  0  0  0  0  0  0  0  # atno 8342 bound_to 2551
    4.9179   -9.2151    8.2768 LP  0  0  0  0  0  0  0  0  0  0  0  0  # atno 8343 bound_to 2551

