
011|LMW3_p|sdf|11|dock1
  -GOLD-   6 62220123D 1   1.00000     0.00000

 75 78  0  0  0  0  0  0  0  0  1 V2000
    6.5262   -3.0747   -0.0805 O   0  0  0  0  0  0  0  0  0  0  0  0
    7.6329   -2.4344    0.5505 C   0  0  2  0  0  0  0  0  0  0  0  0
    7.2861   -2.1499    2.0154 C   0  0  0  0  0  0  0  0  0  0  0  0
    8.0086   -1.1784   -0.2328 C   0  0  0  0  0  0  0  0  0  0  0  0
    8.3417   -1.2823    2.7286 C   0  0  2  0  0  0  0  0  0  0  0  0
    9.0224   -0.2955    0.4998 C   0  0  0  0  0  0  0  0  0  0  0  0
    8.6109    0.0481    1.9656 C   0  0  2  0  0  0  0  0  0  0  0  0
    9.6236   -2.1149    2.9511 C   0  0  0  0  0  0  0  0  0  0  0  0
    9.7738    0.8708    2.6524 C   0  0  2  0  0  0  0  0  0  0  0  0
    7.3207    0.9075    1.9142 C   0  0  0  0  0  0  0  0  0  0  0  0
   10.8314   -1.3129    3.3015 C   0  0  0  0  0  0  0  0  0  0  0  0
   10.9189    0.0207    3.1752 C   0  0  0  0  0  0  0  0  0  0  0  0
    9.3460    1.7871    3.8188 C   0  0  0  0  0  0  0  0  0  0  0  0
   12.1341    0.7653    3.6887 C   0  0  2  0  0  0  0  0  0  0  0  0
   10.5203    2.6414    4.3233 C   0  0  0  0  0  0  0  0  0  0  0  0
   11.7727    1.8206    4.7591 C   0  0  2  0  0  0  0  0  0  0  0  0
   12.9331    1.5248    2.6205 C   0  0  0  0  0  0  0  0  0  0  0  0
   13.0278    2.7557    4.7684 C   0  0  2  0  0  0  0  0  0  0  0  0
   11.4673    1.1704    6.1195 C   0  0  0  0  0  0  0  0  0  0  0  0
   13.4366    2.8122    3.2802 C   0  0  0  0  0  0  0  0  0  0  0  0
   14.2074    2.3899    5.7256 C   0  0  1  0  0  0  0  0  0  0  0  0
   15.5482    2.9893    5.3672 C   0  0  0  0  0  0  0  0  0  0  0  0
   13.8747    2.7874    7.1731 C   0  0  0  0  0  0  0  0  0  0  0  0
   16.6724    2.2740    5.1979 C   0  0  0  0  0  0  0  0  0  0  0  0
   18.0081    2.8809    4.8311 C   0  0  1  0  0  0  0  0  0  0  0  0
   18.3679    2.7291    3.3269 C   0  0  0  0  0  0  0  0  0  0  0  0
   18.0361    4.3446    5.2848 C   0  0  0  0  0  0  0  0  0  0  0  0
   18.4491    1.2786    2.8399 C   0  0  0  0  0  0  0  0  0  0  0  0
   19.6729    3.4596    2.9866 C   0  0  0  0  0  0  0  0  0  0  0  0
    6.6768   -3.1115   -1.0381 H   0  0  0  0  0  0  0  0  0  0  0  0
    8.4935   -3.0703    0.5497 H   0  0  0  0  0  0  0  0  0  0  0  0
    7.2052   -3.0826    2.5336 H   0  0  0  0  0  0  0  0  0  0  0  0
    6.3652   -1.6051    2.0256 H   0  0  0  0  0  0  0  0  0  0  0  0
    7.1210   -0.6065   -0.4058 H   0  0  0  0  0  0  0  0  0  0  0  0
    8.4642   -1.4966   -1.1472 H   0  0  0  0  0  0  0  0  0  0  0  0
    7.9651   -0.9891    3.6863 H   0  0  0  0  0  0  0  0  0  0  0  0
    9.1290    0.6195   -0.0444 H   0  0  0  0  0  0  0  0  0  0  0  0
    9.9373   -0.8477    0.5530 H   0  0  0  0  0  0  0  0  0  0  0  0
    9.8311   -2.6552    2.0512 H   0  0  0  0  0  0  0  0  0  0  0  0
    9.4296   -2.7528    3.7880 H   0  0  0  0  0  0  0  0  0  0  0  0
   10.0941    1.4732    1.8281 H   0  0  0  0  0  0  0  0  0  0  0  0
    6.9501    1.0541    2.9071 H   0  0  0  0  0  0  0  0  0  0  0  0
    6.5804    0.4047    1.3277 H   0  0  0  0  0  0  0  0  0  0  0  0
    7.5418    1.8566    1.4722 H   0  0  0  0  0  0  0  0  0  0  0  0
   11.6550   -1.8170    3.6655 H   0  0  0  0  0  0  0  0  0  0  0  0
    8.9862    1.1807    4.6236 H   0  0  0  0  0  0  0  0  0  0  0  0
    8.5795    2.4448    3.4657 H   0  0  0  0  0  0  0  0  0  0  0  0
   12.7311   -0.0292    4.0854 H   0  0  0  0  0  0  0  0  0  0  0  0
   10.1833    3.2101    5.1647 H   0  0  0  0  0  0  0  0  0  0  0  0
   10.8273    3.2544    3.5019 H   0  0  0  0  0  0  0  0  0  0  0  0
   12.3044    1.7591    1.7869 H   0  0  0  0  0  0  0  0  0  0  0  0
   13.7480    0.9343    2.2570 H   0  0  0  0  0  0  0  0  0  0  0  0
   12.7686    3.7027    5.1937 H   0  0  0  0  0  0  0  0  0  0  0  0
   10.6258    0.5169    6.0215 H   0  0  0  0  0  0  0  0  0  0  0  0
   11.2455    1.9324    6.8372 H   0  0  0  0  0  0  0  0  0  0  0  0
   12.3182    0.6099    6.4460 H   0  0  0  0  0  0  0  0  0  0  0  0
   12.9902    3.6634    2.8100 H   0  0  0  0  0  0  0  0  0  0  0  0
   14.4985    2.8980    3.1820 H   0  0  0  0  0  0  0  0  0  0  0  0
   14.3080    1.3302    5.6162 H   0  0  0  0  0  0  0  0  0  0  0  0
   15.6032    4.0125    5.2449 H   0  0  0  0  0  0  0  0  0  0  0  0
   14.7615    3.1352    7.6602 H   0  0  0  0  0  0  0  0  0  0  0  0
   13.4899    1.9374    7.6969 H   0  0  0  0  0  0  0  0  0  0  0  0
   13.1409    3.5663    7.1693 H   0  0  0  0  0  0  0  0  0  0  0  0
   16.6217    1.2512    5.3256 H   0  0  0  0  0  0  0  0  0  0  0  0
   18.7690    2.3331    5.3468 H   0  0  0  0  0  0  0  0  0  0  0  0
   17.5503    3.1823    2.8062 H   0  0  0  0  0  0  0  0  0  0  0  0
   17.4511    4.9375    4.6131 H   0  0  0  0  0  0  0  0  0  0  0  0
   19.0459    4.6984    5.2859 H   0  0  0  0  0  0  0  0  0  0  0  0
   17.6308    4.4197    6.2723 H   0  0  0  0  0  0  0  0  0  0  0  0
   18.6461    1.2660    1.7882 H   0  0  0  0  0  0  0  0  0  0  0  0
   17.5203    0.7844    3.0347 H   0  0  0  0  0  0  0  0  0  0  0  0
   19.2376    0.7725    3.3566 H   0  0  0  0  0  0  0  0  0  0  0  0
   20.0676    3.0758    2.0692 H   0  0  0  0  0  0  0  0  0  0  0  0
   20.3828    3.3060    3.7723 H   0  0  0  0  0  0  0  0  0  0  0  0
   19.4785    4.5065    2.8811 H   0  0  0  0  0  0  0  0  0  0  0  0
  1  2  1  0  0  0  0
  1 30  1  0  0  0  0
  2  3  1  0  0  0  0
  2  4  1  0  0  0  0
  2 31  1  0  0  0  0
  3  5  1  0  0  0  0
  3 32  1  0  0  0  0
  3 33  1  0  0  0  0
  4  6  1  0  0  0  0
  4 34  1  0  0  0  0
  4 35  1  0  0  0  0
  5  7  1  0  0  0  0
  5  8  1  0  0  0  0
  5 36  1  0  0  0  0
  6  7  1  0  0  0  0
  6 37  1  0  0  0  0
  6 38  1  0  0  0  0
  7  9  1  0  0  0  0
  7 10  1  0  0  0  0
  8 11  1  0  0  0  0
  8 39  1  0  0  0  0
  8 40  1  0  0  0  0
  9 12  1  0  0  0  0
  9 13  1  0  0  0  0
  9 41  1  0  0  0  0
 10 42  1  0  0  0  0
 10 43  1  0  0  0  0
 10 44  1  0  0  0  0
 11 12  2  0  0  0  0
 11 45  1  0  0  0  0
 12 14  1  0  0  0  0
 13 15  1  0  0  0  0
 13 46  1  0  0  0  0
 13 47  1  0  0  0  0
 14 16  1  0  0  0  0
 14 17  1  0  0  0  0
 14 48  1  0  0  0  0
 15 16  1  0  0  0  0
 15 49  1  0  0  0  0
 15 50  1  0  0  0  0
 16 18  1  0  0  0  0
 16 19  1  0  0  0  0
 17 20  1  0  0  0  0
 17 51  1  0  0  0  0
 17 52  1  0  0  0  0
 18 21  1  0  0  0  0
 18 20  1  0  0  0  0
 18 53  1  0  0  0  0
 19 54  1  0  0  0  0
 19 55  1  0  0  0  0
 19 56  1  0  0  0  0
 20 57  1  0  0  0  0
 20 58  1  0  0  0  0
 21 22  1  0  0  0  0
 21 23  1  0  0  0  0
 21 59  1  0  0  0  0
 22 24  2  0  0  0  0
 22 60  1  0  0  0  0
 23 61  1  0  0  0  0
 23 62  1  0  0  0  0
 23 63  1  0  0  0  0
 24 25  1  0  0  0  0
 24 64  1  0  0  0  0
 25 26  1  0  0  0  0
 25 27  1  0  0  0  0
 25 65  1  0  0  0  0
 26 28  1  0  0  0  0
 26 29  1  0  0  0  0
 26 66  1  0  0  0  0
 27 67  1  0  0  0  0
 27 68  1  0  0  0  0
 27 69  1  0  0  0  0
 28 70  1  0  0  0  0
 28 71  1  0  0  0  0
 28 72  1  0  0  0  0
 29 73  1  0  0  0  0
 29 74  1  0  0  0  0
 29 75  1  0  0  0  0
M  END
>  <Code-name>
011

>  <Compound>
(22E)-Ergosta-7,22-dien-3Î²-ol

>  <Specie>
Pleurotus eryngii

>  <Reference>
KIKUCHI et al., 2023

>  <Organism>
Anticancer Activity

>  <Smiles>
CC(C)[C@@H](C)/C=C/[C@@H](C)[C@@H](CC1)[C@]2(C)[C@H]1C1=CC[C@H](C[C@H](CC3)O)[C@@]3(C)[C@H]1CC2

>  <MMFF94 Energy>
95.463

>  <Total Molweight>
398.672

>  <Molweight>
398.672

>  <Monoisotopic Mass>
398.354865

>  <cLogP>
7.1486

>  <cLogS>
-6.171

>  <H-Acceptors>
1

>  <H-Donors>
1

>  <Total Surface Area>
321.52

>  <Relative PSA>
0.040744

>  <Polar Surface Area>
20.23

>  <Druglikeness>
-1.2005

>  <Mutagenic>
none

>  <Tumorigenic>
low

>  <Reproductive Effective>
none

>  <Irritant>
none

>  <Nasty Functions>


>  <Shape Index>
0.55172

>  <Molecular Flexibility>
0.30987

>  <Molecular Complexity>
0.93464

>  <Fragments>
1

>  <Non-H Atoms>
29

>  <Non-C/H Atoms>
1

>  <Metal-Atoms>
0

>  <Electronegative Atoms>
1

>  <Stereo Centers>
9

>  <Rotatable Bonds>
4

>  <Rings Closures>
4

>  <Small Rings>
4

>  <Aromatic Rings>
0

>  <Aromatic Atoms>
0

>  <sp3-Atoms>
25

>  <Symmetric atoms>
1

>  <Amides>
0

>  <Amines>
0

>  <Alkyl-Amines>
0

>  <Aromatic Amines>
0

>  <Aromatic Nitrogens>
0

>  <Basic Nitrogens>
0

>  <Acidic Oxygens>
0

>  <Stereo Configuration>
this enantiomer

> <Gold.Version>
5.8.1

> <Gold.Id.Protein>
ID_2|Prot_COX2_5IKQ_Alig|mol2

> <Gold.Goldscore.Fitness>
-18.1647

> <Gold.Goldscore.Internal.Vdw>
-22.7343

> <Gold.Goldscore.Internal.Torsion>
-5.1723

> <Gold.Goldscore.External.Vdw>
-5.2717

> <Gold.Goldscore.Internal.HBond>
0.0000

> <Gold.Goldscore.External.HBond>
0.0000

> <Gold.Goldscore.Internal.Correction>
-16.9904

> <Gold.Goldscore.Internal.Vdw.Weighted>
-22.7343

> <Gold.Goldscore.Internal.Torsion.Weighted>
-5.1723

> <Gold.Goldscore.External.Vdw.Weighted>
-7.2486

> <Gold.Goldscore.Internal.HBond.Weighted>
0.0000

> <Gold.Goldscore.External.HBond.Weighted>
0.0000

> <Gold.Goldscore.Internal.Correction.Weighted>
-16.9904

> <Gold.Protein.RotatedTorsions>
[ 5077 5068 5067 5065 ] final  -88.91 input  179.94 | X-H torsion
[ 5157 5152 5151 5148 ] final  122.54 input -179.92 | X-H torsion
[ 5185 5176 5175 5173 ] final   53.70 input -179.99 | X-H torsion
[ 5712 5703 5702 5700 ] final  123.50 input  180.00 | X-H torsion
[ 8036 8031 8030 8027 ] final -155.01 input -179.94 | X-H torsion
[ 2749 2745 2743 2740 ] final  -93.77 input  -60.05 | X-H torsion
[ 1366 1361 1360 1357 ] final -148.13 input  -60.09 | X-H torsion
[ 2556 2551 2550 2547 ] final   -4.76 input   59.97 | X-H torsion

> <Gold.Protein.ActiveResidues>
 PRO86   VAL89   HIS90   LEU93   THR94   ILE112  MET113  TYR115  VAL116  LEU117 
 THR118  SER119  ARG120  SER121  LEU123  ILE124  GLN192  SER194  PHE198  PHE201 
 ALA202  GLN203  PHE205  THR206  PHE209  PHE210  VAL228  ILE341  ILE343  VAL344 
 ILE345  GLU346  ASP347  TYR348  VAL349  GLN350  HIS351  LEU352  SER353  GLY354 
 TYR355  PHE357  LEU359  LYS360  GLU380  PHE381  ASN382  THR383  LEU384  TYR385 
 HIS386  TRP387  LEU390  VAL434  LEU507  ARG513  ALA516  ILE517  PHE518  GLY519 
 GLU520  THR521  MET522  VAL523  GLU524  VAL525  GLY526  ALA527  PRO528  PHE529 
 SER530  LEU531  LYS532  GLY533  LEU534  MET535  COH609 

> <Gold.Protein.RotatedAtoms>
   18.7151    7.0189    3.2417 H   0  0  0  0  0  0  0  0  0  0  0  0  # atno 1366 bound_to 1361
    5.0591   -9.6905    8.0979 H   0  0  0  0  0  0  0  0  0  0  0  0  # atno 2556 bound_to 2551
   -3.1703   -0.3927    1.2506 H   0  0  0  0  0  0  0  0  0  0  0  0  # atno 2749 bound_to 2745
    1.9579   -2.6415    4.0460 H   0  0  0  0  0  0  0  0  0  0  0  0  # atno 5077 bound_to 5068
   12.9125   -1.9266    9.1675 H   0  0  0  0  0  0  0  0  0  0  0  0  # atno 5157 bound_to 5152
   15.3558   -0.9470    4.6468 H   0  0  0  0  0  0  0  0  0  0  0  0  # atno 5185 bound_to 5176
    3.0525   -0.3662    2.3850 H   0  0  0  0  0  0  0  0  0  0  0  0  # atno 5712 bound_to 5703
    6.0454    3.9248    3.6429 H   0  0  0  0  0  0  0  0  0  0  0  0  # atno 8036 bound_to 8031
    1.6241   -1.2446    3.6002 LP  0  0  0  0  0  0  0  0  0  0  0  0  # atno 8267 bound_to 5068
    0.5157   -2.2608    4.2368 LP  0  0  0  0  0  0  0  0  0  0  0  0  # atno 8268 bound_to 5068
   11.8926   -3.0271    9.2852 LP  0  0  0  0  0  0  0  0  0  0  0  0  # atno 8279 bound_to 5152
   11.4974   -1.4435    9.3378 LP  0  0  0  0  0  0  0  0  0  0  0  0  # atno 8280 bound_to 5152
   16.7579   -0.4815    4.9224 LP  0  0  0  0  0  0  0  0  0  0  0  0  # atno 8281 bound_to 5176
   15.4591    0.5022    5.0314 LP  0  0  0  0  0  0  0  0  0  0  0  0  # atno 8282 bound_to 5176
    1.8371   -1.0946    2.8858 LP  0  0  0  0  0  0  0  0  0  0  0  0  # atno 8283 bound_to 5703
    1.8708    0.5218    2.6565 LP  0  0  0  0  0  0  0  0  0  0  0  0  # atno 8284 bound_to 5703
    4.6395    4.2207    3.2002 LP  0  0  0  0  0  0  0  0  0  0  0  0  # atno 8309 bound_to 8031
    5.7191    5.3902    3.5654 LP  0  0  0  0  0  0  0  0  0  0  0  0  # atno 8310 bound_to 8031
   -3.0825   -0.2976   -0.2483 LP  0  0  0  0  0  0  0  0  0  0  0  0  # atno 8323 bound_to 2745
   -4.3315    0.3150    0.6069 LP  0  0  0  0  0  0  0  0  0  0  0  0  # atno 8324 bound_to 2745
   18.2609    6.6913    1.8452 LP  0  0  0  0  0  0  0  0  0  0  0  0  # atno 8335 bound_to 1361
   17.5491    7.8400    2.7620 LP  0  0  0  0  0  0  0  0  0  0  0  0  # atno 8336 bound_to 1361
    4.4604   -8.6175    7.2293 LP  0  0  0  0  0  0  0  0  0  0  0  0  # atno 8342 bound_to 2551
    5.0178  -10.0319    6.6330 LP  0  0  0  0  0  0  0  0  0  0  0  0  # atno 8343 bound_to 2551

