
119|LMW3_p|sdf|119|dock2
  -GOLD-   6 922 5 33D 1   1.00000     0.00000

 88 91  0  0  0  0  0  0  0  0  2 V2000
   10.7412   -1.8021    2.3018 O   0  0  0  0  0  0  0  0  0  0  0  0
   10.8690   -1.8976    3.5107 C   0  0  0  0  0  0  0  0  0  0  0  0
   11.3539   -3.0286    4.0583 O   0  5  0  0  0  0  0  0  0  0  0  0
   10.5061   -0.8583    4.5499 C   0  0  1  0  0  0  0  0  0  0  0  0
   11.2945    0.4568    4.3326 C   0  0  2  0  0  0  0  0  0  0  0  0
    8.9667   -0.7018    4.5641 C   0  0  0  0  0  0  0  0  0  0  0  0
   12.8539    0.3921    4.2955 C   0  0  2  0  0  0  0  0  0  0  0  0
   11.0301    1.5080    5.4475 C   0  0  0  0  0  0  0  0  0  0  0  0
    8.3718    0.0576    3.3650 C   0  0  0  0  0  0  0  0  0  0  0  0
   13.2334    1.9088    4.4709 C   0  0  1  0  0  0  0  0  0  0  0  0
   13.4901   -0.1008    2.9918 C   0  0  0  0  0  0  0  0  0  0  0  0
   13.3685   -0.5149    5.4586 C   0  0  0  0  0  0  0  0  0  0  0  0
   12.3443    2.2828    5.6701 C   0  0  0  0  0  0  0  0  0  0  0  0
    6.8505    0.0860    3.2459 C   0  0  0  0  0  0  0  0  0  0  0  0
   14.7454    2.0661    4.5883 C   0  0  0  0  0  0  0  0  0  0  0  0
   12.8206    2.8375    3.2864 C   0  0  0  0  0  0  0  0  0  0  0  0
   15.0140    0.1475    2.9689 C   0  0  0  0  0  0  0  0  0  0  0  0
    6.0191   -0.0456    4.2958 C   0  0  0  0  0  0  0  0  0  0  0  0
    6.3461    0.2646    1.8095 C   0  0  0  0  0  0  0  0  0  0  0  0
   15.5674    1.2715    3.8535 C   0  0  0  0  0  0  0  0  0  0  0  0
   15.2433    3.1755    5.4862 C   0  0  0  0  0  0  0  0  0  0  0  0
    6.3566   -1.0728    1.0625 C   0  0  0  0  0  0  0  0  0  0  0  0
    7.0943    1.3208    0.9855 C   0  0  0  0  0  0  0  0  0  0  0  0
   17.1125    1.4254    3.9156 C   0  0  2  0  0  0  0  0  0  0  0  0
   16.7631    3.3021    5.6039 C   0  0  0  0  0  0  0  0  0  0  0  0
   17.4524    2.9192    4.2851 C   0  0  1  0  0  0  0  0  0  0  0  0
   17.7797    1.1050    2.5527 C   0  0  0  0  0  0  0  0  0  0  0  0
   17.5772    0.3821    4.9607 C   0  0  0  0  0  0  0  0  0  0  0  0
   18.9636    3.3519    4.1890 C   0  0  0  0  0  0  0  0  0  0  0  0
   19.2738    1.4321    2.5069 C   0  0  0  0  0  0  0  0  0  0  0  0
   19.5490    2.9068    2.8125 C   0  0  1  0  0  0  0  0  0  0  0  0
   19.8511    2.8155    5.3306 C   0  0  0  0  0  0  0  0  0  0  0  0
   19.0579    4.9027    4.2739 C   0  0  0  0  0  0  0  0  0  0  0  0
   18.9367    3.7035    1.7694 O   0  0  0  0  0  0  0  0  0  0  0  0
   19.4952    3.6230    0.5317 C   0  0  0  0  0  0  0  0  0  0  0  0
   20.5319    3.0390    0.2516 O   0  0  0  0  0  0  0  0  0  0  0  0
   18.6454    4.3603   -0.4572 C   0  0  0  0  0  0  0  0  0  0  0  0
   10.8008   -1.1741    5.5288 H   0  0  0  0  0  0  0  0  0  0  0  0
   10.9218    0.7069    3.3613 H   0  0  0  0  0  0  0  0  0  0  0  0
    8.6961   -0.1758    5.4557 H   0  0  0  0  0  0  0  0  0  0  0  0
    8.5681   -1.6934    4.5137 H   0  0  0  0  0  0  0  0  0  0  0  0
   10.7374    1.0165    6.3517 H   0  0  0  0  0  0  0  0  0  0  0  0
   10.2427    2.1734    5.1608 H   0  0  0  0  0  0  0  0  0  0  0  0
    8.7566   -0.3938    2.4745 H   0  0  0  0  0  0  0  0  0  0  0  0
    8.6571    1.0781    3.5142 H   0  0  0  0  0  0  0  0  0  0  0  0
   13.0421    0.4176    2.1700 H   0  0  0  0  0  0  0  0  0  0  0  0
   13.3234   -1.1552    2.9177 H   0  0  0  0  0  0  0  0  0  0  0  0
   14.4281   -0.4026    5.5566 H   0  0  0  0  0  0  0  0  0  0  0  0
   13.1366   -1.5370    5.2432 H   0  0  0  0  0  0  0  0  0  0  0  0
   12.8932   -0.2264    6.3728 H   0  0  0  0  0  0  0  0  0  0  0  0
   12.8059    1.9848    6.5882 H   0  0  0  0  0  0  0  0  0  0  0  0
   12.1826    3.3383    5.7377 H   0  0  0  0  0  0  0  0  0  0  0  0
   13.3731    2.5662    2.4111 H   0  0  0  0  0  0  0  0  0  0  0  0
   13.0321    3.8551    3.5405 H   0  0  0  0  0  0  0  0  0  0  0  0
   11.7735    2.7279    3.0953 H   0  0  0  0  0  0  0  0  0  0  0  0
   15.2857    0.3729    1.9588 H   0  0  0  0  0  0  0  0  0  0  0  0
   15.4397   -0.7477    3.3718 H   0  0  0  0  0  0  0  0  0  0  0  0
    6.4030   -0.1638    5.2464 H   0  0  0  0  0  0  0  0  0  0  0  0
    4.9975   -0.0283    4.1503 H   0  0  0  0  0  0  0  0  0  0  0  0
    5.3462    0.6303    1.9158 H   0  0  0  0  0  0  0  0  0  0  0  0
   14.8506    3.0060    6.4669 H   0  0  0  0  0  0  0  0  0  0  0  0
   14.9088    4.0869    5.0363 H   0  0  0  0  0  0  0  0  0  0  0  0
    5.9006   -1.8251    1.6716 H   0  0  0  0  0  0  0  0  0  0  0  0
    7.3665   -1.3527    0.8464 H   0  0  0  0  0  0  0  0  0  0  0  0
    5.8100   -0.9747    0.1479 H   0  0  0  0  0  0  0  0  0  0  0  0
    8.0632    0.9490    0.7247 H   0  0  0  0  0  0  0  0  0  0  0  0
    7.1992    2.2154    1.5632 H   0  0  0  0  0  0  0  0  0  0  0  0
    6.5424    1.5344    0.0941 H   0  0  0  0  0  0  0  0  0  0  0  0
   17.1090    2.6527    6.3808 H   0  0  0  0  0  0  0  0  0  0  0  0
   17.0034    4.3198    5.8307 H   0  0  0  0  0  0  0  0  0  0  0  0
   17.0389    3.5129    3.4968 H   0  0  0  0  0  0  0  0  0  0  0  0
   17.2859    1.6741    1.7929 H   0  0  0  0  0  0  0  0  0  0  0  0
   17.6857    0.0503    2.3990 H   0  0  0  0  0  0  0  0  0  0  0  0
   18.6279    0.2113    4.8513 H   0  0  0  0  0  0  0  0  0  0  0  0
   17.0489   -0.5357    4.8078 H   0  0  0  0  0  0  0  0  0  0  0  0
   17.3763    0.7496    5.9453 H   0  0  0  0  0  0  0  0  0  0  0  0
   19.6468    1.2067    1.5296 H   0  0  0  0  0  0  0  0  0  0  0  0
   19.7636    0.8433    3.2540 H   0  0  0  0  0  0  0  0  0  0  0  0
   20.6092    3.0455    2.8535 H   0  0  0  0  0  0  0  0  0  0  0  0
   19.4745    3.1646    6.2693 H   0  0  0  0  0  0  0  0  0  0  0  0
   20.8538    3.1640    5.1966 H   0  0  0  0  0  0  0  0  0  0  0  0
   19.8408    1.7456    5.3178 H   0  0  0  0  0  0  0  0  0  0  0  0
   19.9070    5.2394    3.7166 H   0  0  0  0  0  0  0  0  0  0  0  0
   19.1628    5.1981    5.2970 H   0  0  0  0  0  0  0  0  0  0  0  0
   18.1689    5.3369    3.8666 H   0  0  0  0  0  0  0  0  0  0  0  0
   17.6298    4.0360   -0.3664 H   0  0  0  0  0  0  0  0  0  0  0  0
   18.9963    4.1605   -1.4481 H   0  0  0  0  0  0  0  0  0  0  0  0
   18.7030    5.4110   -0.2636 H   0  0  0  0  0  0  0  0  0  0  0  0
  1  2  2  0  0  0  0
  2  3  1  0  0  0  0
  2  4  1  0  0  0  0
  4  5  1  0  0  0  0
  4  6  1  0  0  0  0
  4 38  1  0  0  0  0
  5  7  1  0  0  0  0
  5  8  1  0  0  0  0
  5 39  1  0  0  0  0
  6  9  1  0  0  0  0
  6 40  1  0  0  0  0
  6 41  1  0  0  0  0
  7 10  1  0  0  0  0
  7 11  1  0  0  0  0
  7 12  1  0  0  0  0
  8 13  1  0  0  0  0
  8 42  1  0  0  0  0
  8 43  1  0  0  0  0
  9 14  1  0  0  0  0
  9 44  1  0  0  0  0
  9 45  1  0  0  0  0
 10 15  1  0  0  0  0
 10 16  1  0  0  0  0
 10 13  1  0  0  0  0
 11 17  1  0  0  0  0
 11 46  1  0  0  0  0
 11 47  1  0  0  0  0
 12 48  1  0  0  0  0
 12 49  1  0  0  0  0
 12 50  1  0  0  0  0
 13 51  1  0  0  0  0
 13 52  1  0  0  0  0
 14 18  2  0  0  0  0
 14 19  1  0  0  0  0
 15 20  2  0  0  0  0
 15 21  1  0  0  0  0
 16 53  1  0  0  0  0
 16 54  1  0  0  0  0
 16 55  1  0  0  0  0
 17 20  1  0  0  0  0
 17 56  1  0  0  0  0
 17 57  1  0  0  0  0
 18 58  1  0  0  0  0
 18 59  1  0  0  0  0
 19 22  1  0  0  0  0
 19 23  1  0  0  0  0
 19 60  1  0  0  0  0
 20 24  1  0  0  0  0
 21 25  1  0  0  0  0
 21 61  1  0  0  0  0
 21 62  1  0  0  0  0
 22 63  1  0  0  0  0
 22 64  1  0  0  0  0
 22 65  1  0  0  0  0
 23 66  1  0  0  0  0
 23 67  1  0  0  0  0
 23 68  1  0  0  0  0
 24 26  1  0  0  0  0
 24 27  1  0  0  0  0
 24 28  1  0  0  0  0
 25 26  1  0  0  0  0
 25 69  1  0  0  0  0
 25 70  1  0  0  0  0
 26 29  1  0  0  0  0
 26 71  1  0  0  0  0
 27 30  1  0  0  0  0
 27 72  1  0  0  0  0
 27 73  1  0  0  0  0
 28 74  1  0  0  0  0
 28 75  1  0  0  0  0
 28 76  1  0  0  0  0
 29 31  1  0  0  0  0
 29 32  1  0  0  0  0
 29 33  1  0  0  0  0
 30 31  1  0  0  0  0
 30 77  1  0  0  0  0
 30 78  1  0  0  0  0
 31 34  1  0  0  0  0
 31 79  1  0  0  0  0
 32 80  1  0  0  0  0
 32 81  1  0  0  0  0
 32 82  1  0  0  0  0
 33 83  1  0  0  0  0
 33 84  1  0  0  0  0
 33 85  1  0  0  0  0
 34 35  1  0  0  0  0
 35 36  2  0  0  0  0
 35 37  1  0  0  0  0
 37 86  1  0  0  0  0
 37 87  1  0  0  0  0
 37 88  1  0  0  0  0
M  CHG  1   3  -1
M  END
>  <Code-name>
119

>  <Compound>
lanostanoids 3

>  <Specie>
Inonotus obliquus.

>  <Reference>
GrÃ¼ndemann (2020)

>  <Organism>
Cytotoxic Activity

>  <Smiles>
CC(C)C(CC[C@H]([C@@H](CC1)[C@@](C)(CC2)[C@]1(C)C(CC1)=C2[C@@](C)(CC2)[C@@H]1C(C)(C)[C@@H]2OC(C)=O)C(O)=O)=C

>  <MMFF94 Energy>
90.788

>  <Total Molweight>
512.772

>  <Molweight>
512.772

>  <Monoisotopic Mass>
512.386560

>  <cLogP>
7.9149

>  <cLogS>
-6.665

>  <H-Acceptors>
4

>  <H-Donors>
1

>  <Total Surface Area>
396.84

>  <Relative PSA>
0.12393

>  <Polar Surface Area>
63.6

>  <Druglikeness>
-6.7819

>  <Mutagenic>
none

>  <Tumorigenic>
none

>  <Reproductive Effective>
low

>  <Irritant>
none

>  <Nasty Functions>


>  <Shape Index>
0.48649

>  <Molecular Flexibility>
0.33662

>  <Molecular Complexity>
1.0143

>  <Fragments>
1

>  <Non-H Atoms>
37

>  <Non-C/H Atoms>
4

>  <Metal-Atoms>
0

>  <Electronegative Atoms>
4

>  <Stereo Centers>
7

>  <Rotatable Bonds>
8

>  <Rings Closures>
4

>  <Small Rings>
4

>  <Aromatic Rings>
0

>  <Aromatic Atoms>
0

>  <sp3-Atoms>
29

>  <Symmetric atoms>
2

>  <Amides>
0

>  <Amines>
0

>  <Alkyl-Amines>
0

>  <Aromatic Amines>
0

>  <Aromatic Nitrogens>
0

>  <Basic Nitrogens>
0

>  <Acidic Oxygens>
1

>  <Stereo Configuration>
this enantiomer

> <Gold.Version>
5.8.1

> <Gold.Id.Protein>
ID_2|Prot_COX2_5IKQ_Alig|mol2

> <Gold.Goldscore.Fitness>
-87.6304

> <Gold.Goldscore.Internal.Vdw>
-26.8004

> <Gold.Goldscore.Internal.Torsion>
-6.6581

> <Gold.Goldscore.External.Vdw>
-60.5731

> <Gold.Goldscore.Internal.HBond>
0.0000

> <Gold.Goldscore.External.HBond>
0.0000

> <Gold.Goldscore.Internal.Correction>
-29.1161

> <Gold.Goldscore.Internal.Vdw.Weighted>
-26.8004

> <Gold.Goldscore.Internal.Torsion.Weighted>
-6.6581

> <Gold.Goldscore.External.Vdw.Weighted>
-83.2880

> <Gold.Goldscore.Internal.HBond.Weighted>
0.0000

> <Gold.Goldscore.External.HBond.Weighted>
0.0000

> <Gold.Goldscore.Internal.Correction.Weighted>
-29.1161

> <Gold.Protein.RotatedTorsions>
[ 5077 5068 5067 5065 ] final -159.37 input  179.94 | X-H torsion
[ 5157 5152 5151 5148 ] final -161.88 input -179.92 | X-H torsion
[ 5185 5176 5175 5173 ] final    7.70 input -179.99 | X-H torsion
[ 5712 5703 5702 5700 ] final  157.76 input  180.00 | X-H torsion
[ 8036 8031 8030 8027 ] final  153.95 input -179.94 | X-H torsion
[ 2749 2745 2743 2740 ] final   61.60 input  -60.05 | X-H torsion
[ 1366 1361 1360 1357 ] final   66.08 input  -60.09 | X-H torsion
[ 2556 2551 2550 2547 ] final -170.86 input   59.97 | X-H torsion

> <Gold.Protein.ActiveResidues>
 PRO86   VAL89   HIS90   LEU93   THR94   ILE112  MET113  TYR115  VAL116  LEU117 
 THR118  SER119  ARG120  SER121  LEU123  ILE124  GLN192  SER194  PHE198  PHE201 
 ALA202  GLN203  PHE205  THR206  PHE209  PHE210  VAL228  ILE341  ILE343  VAL344 
 ILE345  GLU346  ASP347  TYR348  VAL349  GLN350  HIS351  LEU352  SER353  GLY354 
 TYR355  PHE357  LEU359  LYS360  GLU380  PHE381  ASN382  THR383  LEU384  TYR385 
 HIS386  TRP387  LEU390  VAL434  LEU507  ARG513  ALA516  ILE517  PHE518  GLY519 
 GLU520  THR521  MET522  VAL523  GLU524  VAL525  GLY526  ALA527  PRO528  PHE529 
 SER530  LEU531  LYS532  GLY533  LEU534  MET535  COH609 

> <Gold.Protein.RotatedAtoms>
   18.0164    7.0232    1.9023 H   0  0  0  0  0  0  0  0  0  0  0  0  # atno 1366 bound_to 1361
    4.5504   -9.0980    6.7369 H   0  0  0  0  0  0  0  0  0  0  0  0  # atno 2556 bound_to 2551
   -4.0371    0.2544    0.1496 H   0  0  0  0  0  0  0  0  0  0  0  0  # atno 2749 bound_to 2745
    2.0978   -1.8026    3.7206 H   0  0  0  0  0  0  0  0  0  0  0  0  # atno 5077 bound_to 5068
   12.1533   -1.3288    9.2392 H   0  0  0  0  0  0  0  0  0  0  0  0  # atno 5157 bound_to 5152
   15.9491   -1.1080    4.6799 H   0  0  0  0  0  0  0  0  0  0  0  0  # atno 5185 bound_to 5176
    2.9304    0.0809    2.3600 H   0  0  0  0  0  0  0  0  0  0  0  0  # atno 5712 bound_to 5703
    5.4424    3.6899    3.4358 H   0  0  0  0  0  0  0  0  0  0  0  0  # atno 8036 bound_to 8031
    0.6368   -1.5343    3.9550 LP  0  0  0  0  0  0  0  0  0  0  0  0  # atno 8267 bound_to 5068
    1.3356   -2.9758    4.2718 LP  0  0  0  0  0  0  0  0  0  0  0  0  # atno 8268 bound_to 5068
   12.9626   -2.5971    9.1995 LP  0  0  0  0  0  0  0  0  0  0  0  0  # atno 8279 bound_to 5152
   11.3355   -2.5884    9.3378 LP  0  0  0  0  0  0  0  0  0  0  0  0  # atno 8280 bound_to 5152
   16.5514    0.2056    5.0923 LP  0  0  0  0  0  0  0  0  0  0  0  0  # atno 8281 bound_to 5176
   14.9531    0.0085    4.8218 LP  0  0  0  0  0  0  0  0  0  0  0  0  # atno 8282 bound_to 5176
    2.3547   -1.2498    2.7557 LP  0  0  0  0  0  0  0  0  0  0  0  0  # atno 8283 bound_to 5703
    1.4998    0.1402    2.8167 LP  0  0  0  0  0  0  0  0  0  0  0  0  # atno 8284 bound_to 5703
    4.7729    5.0217    3.2405 LP  0  0  0  0  0  0  0  0  0  0  0  0  # atno 8309 bound_to 8031
    6.3091    4.8709    3.7735 LP  0  0  0  0  0  0  0  0  0  0  0  0  # atno 8310 bound_to 8031
   -3.6169   -0.2185    1.5146 LP  0  0  0  0  0  0  0  0  0  0  0  0  # atno 8323 bound_to 2745
   -2.7590   -0.5391    0.1626 LP  0  0  0  0  0  0  0  0  0  0  0  0  # atno 8324 bound_to 2745
   17.7448    7.8388    3.1372 LP  0  0  0  0  0  0  0  0  0  0  0  0  # atno 8335 bound_to 1361
   18.9010    6.6874    3.0722 LP  0  0  0  0  0  0  0  0  0  0  0  0  # atno 8336 bound_to 1361
    5.2580  -10.3117    7.2757 LP  0  0  0  0  0  0  0  0  0  0  0  0  # atno 8342 bound_to 2551
    4.8287   -9.0466    8.2148 LP  0  0  0  0  0  0  0  0  0  0  0  0  # atno 8343 bound_to 2551

