
122|LMW3_p|sdf|122|dock3
  -GOLD-   6 922 5103D 1   1.00000     0.00000

 80 83  0  0  0  0  0  0  0  0  2 V2000
   16.2911    2.4355    6.9722 O   0  0  0  0  0  0  0  0  0  0  0  0
   16.3468    2.6909    5.7814 C   0  0  0  0  0  0  0  0  0  0  0  0
   17.2353    3.5910    5.3174 O   0  5  0  0  0  0  0  0  0  0  0  0
   15.5115    2.0730    4.6723 C   0  0  2  0  0  0  0  0  0  0  0  0
   14.0267    1.9622    5.1106 C   0  0  2  0  0  0  0  0  0  0  0  0
   16.1986    0.7680    4.2319 C   0  0  0  0  0  0  0  0  0  0  0  0
   12.9816    1.3367    4.1358 C   0  0  2  0  0  0  0  0  0  0  0  0
   13.4178    3.3685    5.3991 C   0  0  0  0  0  0  0  0  0  0  0  0
   17.7304    0.7862    4.2921 C   0  0  0  0  0  0  0  0  0  0  0  0
   11.6168    1.8354    4.7615 C   0  0  1  0  0  0  0  0  0  0  0  0
   12.9333   -0.1940    4.0780 C   0  0  0  0  0  0  0  0  0  0  0  0
   13.2338    1.8763    2.6913 C   0  0  0  0  0  0  0  0  0  0  0  0
   11.9432    3.3413    4.9475 C   0  0  1  0  0  0  0  0  0  0  0  0
   18.3013    1.5413    3.1224 C   0  0  0  0  0  0  0  0  0  0  0  0
   10.4530    1.4190    3.8526 C   0  0  0  0  0  0  0  0  0  0  0  0
   11.2721    1.2259    6.1570 C   0  0  0  0  0  0  0  0  0  0  0  0
   11.7060   -0.7019    3.2955 C   0  0  0  0  0  0  0  0  0  0  0  0
   11.1571    4.0112    5.9232 O   0  0  0  0  0  0  0  0  0  0  0  0
   18.6881    1.0415    1.9325 C   0  0  0  0  0  0  0  0  0  0  0  0
   10.4870    0.2216    3.2087 C   0  0  0  0  0  0  0  0  0  0  0  0
    9.2726    2.3597    3.7738 C   0  0  0  0  0  0  0  0  0  0  0  0
   18.6632   -0.4149    1.5582 C   0  0  0  0  0  0  0  0  0  0  0  0
   19.2074    1.9508    0.8495 C   0  0  0  0  0  0  0  0  0  0  0  0
    9.3153   -0.2532    2.3014 C   0  0  2  0  0  0  0  0  0  0  0  0
    8.1470    1.9451    2.8256 C   0  0  0  0  0  0  0  0  0  0  0  0
    7.9844    0.4192    2.8061 C   0  0  1  0  0  0  0  0  0  0  0  0
    9.1201   -1.7910    2.3649 C   0  0  0  0  0  0  0  0  0  0  0  0
    9.7307    0.1443    0.8642 C   0  0  0  0  0  0  0  0  0  0  0  0
    6.6408   -0.0841    2.1665 C   0  0  0  0  0  0  0  0  0  0  0  0
    7.8732   -2.2799    1.6319 C   0  0  0  0  0  0  0  0  0  0  0  0
    6.6104   -1.6318    2.1817 C   0  0  0  0  0  0  0  0  0  0  0  0
    5.4434    0.3917    3.0332 C   0  0  0  0  0  0  0  0  0  0  0  0
    6.3723    0.4372    0.7423 C   0  0  0  0  0  0  0  0  0  0  0  0
   15.4641    2.6895    3.7991 H   0  0  0  0  0  0  0  0  0  0  0  0
   14.1465    1.3019    5.9440 H   0  0  0  0  0  0  0  0  0  0  0  0
   15.9090    0.5656    3.2219 H   0  0  0  0  0  0  0  0  0  0  0  0
   15.8824    0.0167    4.9250 H   0  0  0  0  0  0  0  0  0  0  0  0
   13.9528    4.1167    4.8524 H   0  0  0  0  0  0  0  0  0  0  0  0
   13.4867    3.6006    6.4414 H   0  0  0  0  0  0  0  0  0  0  0  0
   18.0943   -0.2198    4.2718 H   0  0  0  0  0  0  0  0  0  0  0  0
   18.0328    1.2730    5.1957 H   0  0  0  0  0  0  0  0  0  0  0  0
   12.8894   -0.5766    5.0764 H   0  0  0  0  0  0  0  0  0  0  0  0
   13.8127   -0.5345    3.5724 H   0  0  0  0  0  0  0  0  0  0  0  0
   14.1201    1.4284    2.2929 H   0  0  0  0  0  0  0  0  0  0  0  0
   13.3548    2.9390    2.7236 H   0  0  0  0  0  0  0  0  0  0  0  0
   12.3992    1.6311    2.0682 H   0  0  0  0  0  0  0  0  0  0  0  0
   11.7381    3.8542    4.0311 H   0  0  0  0  0  0  0  0  0  0  0  0
   18.4091    2.5602    3.2460 H   0  0  0  0  0  0  0  0  0  0  0  0
   12.1740    0.9232    6.6467 H   0  0  0  0  0  0  0  0  0  0  0  0
   10.6343    0.3765    6.0276 H   0  0  0  0  0  0  0  0  0  0  0  0
   10.7717    1.9601    6.7532 H   0  0  0  0  0  0  0  0  0  0  0  0
   11.3856   -1.6119    3.7584 H   0  0  0  0  0  0  0  0  0  0  0  0
   12.0477   -0.7955    2.2859 H   0  0  0  0  0  0  0  0  0  0  0  0
   11.5391    4.8847    6.1020 H   0  0  0  0  0  0  0  0  0  0  0  0
    9.6355    3.3141    3.4537 H   0  0  0  0  0  0  0  0  0  0  0  0
    8.8395    2.3616    4.7522 H   0  0  0  0  0  0  0  0  0  0  0  0
   19.5595   -0.8871    1.9026 H   0  0  0  0  0  0  0  0  0  0  0  0
   18.5967   -0.5087    0.4944 H   0  0  0  0  0  0  0  0  0  0  0  0
   17.8156   -0.8852    2.0114 H   0  0  0  0  0  0  0  0  0  0  0  0
   18.5112    1.9720    0.0372 H   0  0  0  0  0  0  0  0  0  0  0  0
   20.1513    1.5870    0.5007 H   0  0  0  0  0  0  0  0  0  0  0  0
   19.3287    2.9391    1.2412 H   0  0  0  0  0  0  0  0  0  0  0  0
    8.3771    2.2859    1.8378 H   0  0  0  0  0  0  0  0  0  0  0  0
    7.2323    2.3829    3.1672 H   0  0  0  0  0  0  0  0  0  0  0  0
    7.8497    0.0728    3.8095 H   0  0  0  0  0  0  0  0  0  0  0  0
    9.0437   -2.0800    3.3922 H   0  0  0  0  0  0  0  0  0  0  0  0
    9.9638   -2.2346    1.8788 H   0  0  0  0  0  0  0  0  0  0  0  0
    9.7942    1.2100    0.7931 H   0  0  0  0  0  0  0  0  0  0  0  0
    9.0014   -0.2168    0.1694 H   0  0  0  0  0  0  0  0  0  0  0  0
   10.6837   -0.2857    0.6366 H   0  0  0  0  0  0  0  0  0  0  0  0
    7.7970   -3.3410    1.7461 H   0  0  0  0  0  0  0  0  0  0  0  0
    7.9649   -2.0124    0.6000 H   0  0  0  0  0  0  0  0  0  0  0  0
    5.7799   -1.9580    1.5910 H   0  0  0  0  0  0  0  0  0  0  0  0
    6.5291   -1.9304    3.2060 H   0  0  0  0  0  0  0  0  0  0  0  0
    5.2673    1.4324    2.8578 H   0  0  0  0  0  0  0  0  0  0  0  0
    5.6685    0.2376    4.0679 H   0  0  0  0  0  0  0  0  0  0  0  0
    4.5692   -0.1670    2.7714 H   0  0  0  0  0  0  0  0  0  0  0  0
    5.3239    0.3849    0.5350 H   0  0  0  0  0  0  0  0  0  0  0  0
    6.9060   -0.1638    0.0359 H   0  0  0  0  0  0  0  0  0  0  0  0
    6.7007    1.4528    0.6664 H   0  0  0  0  0  0  0  0  0  0  0  0
  1  2  2  0  0  0  0
  2  3  1  0  0  0  0
  2  4  1  0  0  0  0
  4  5  1  0  0  0  0
  4  6  1  0  0  0  0
  4 34  1  0  0  0  0
  5  7  1  0  0  0  0
  5  8  1  0  0  0  0
  5 35  1  0  0  0  0
  6  9  1  0  0  0  0
  6 36  1  0  0  0  0
  6 37  1  0  0  0  0
  7 10  1  0  0  0  0
  7 11  1  0  0  0  0
  7 12  1  0  0  0  0
  8 13  1  0  0  0  0
  8 38  1  0  0  0  0
  8 39  1  0  0  0  0
  9 14  1  0  0  0  0
  9 40  1  0  0  0  0
  9 41  1  0  0  0  0
 10 15  1  0  0  0  0
 10 16  1  0  0  0  0
 10 13  1  0  0  0  0
 11 17  1  0  0  0  0
 11 42  1  0  0  0  0
 11 43  1  0  0  0  0
 12 44  1  0  0  0  0
 12 45  1  0  0  0  0
 12 46  1  0  0  0  0
 13 18  1  0  0  0  0
 13 47  1  0  0  0  0
 14 19  2  0  0  0  0
 14 48  1  0  0  0  0
 15 20  2  0  0  0  0
 15 21  1  0  0  0  0
 16 49  1  0  0  0  0
 16 50  1  0  0  0  0
 16 51  1  0  0  0  0
 17 20  1  0  0  0  0
 17 52  1  0  0  0  0
 17 53  1  0  0  0  0
 18 54  1  0  0  0  0
 19 22  1  0  0  0  0
 19 23  1  0  0  0  0
 20 24  1  0  0  0  0
 21 25  1  0  0  0  0
 21 55  1  0  0  0  0
 21 56  1  0  0  0  0
 22 57  1  0  0  0  0
 22 58  1  0  0  0  0
 22 59  1  0  0  0  0
 23 60  1  0  0  0  0
 23 61  1  0  0  0  0
 23 62  1  0  0  0  0
 24 26  1  0  0  0  0
 24 27  1  0  0  0  0
 24 28  1  0  0  0  0
 25 26  1  0  0  0  0
 25 63  1  0  0  0  0
 25 64  1  0  0  0  0
 26 29  1  0  0  0  0
 26 65  1  0  0  0  0
 27 30  1  0  0  0  0
 27 66  1  0  0  0  0
 27 67  1  0  0  0  0
 28 68  1  0  0  0  0
 28 69  1  0  0  0  0
 28 70  1  0  0  0  0
 29 31  1  0  0  0  0
 29 32  1  0  0  0  0
 29 33  1  0  0  0  0
 30 31  1  0  0  0  0
 30 71  1  0  0  0  0
 30 72  1  0  0  0  0
 31 73  1  0  0  0  0
 31 74  1  0  0  0  0
 32 75  1  0  0  0  0
 32 76  1  0  0  0  0
 32 77  1  0  0  0  0
 33 78  1  0  0  0  0
 33 79  1  0  0  0  0
 33 80  1  0  0  0  0
M  CHG  1   3  -1
M  END
>  <Code-name>
122

>  <Compound>
lanostanoids 6

>  <Specie>
Inonotus obliquus.

>  <Reference>
GrÃ¼ndemann (2020)

>  <Organism>
Cytotoxic Activity

>  <Smiles>
C[C@@](CC1)([C@H](C[C@@H]2O)[C@H](CCC=C(C)C)C(O)=O)[C@]2(C)C(CC2)=C1[C@]1(C)[C@@H]2C(C)(C)CCC1

>  <MMFF94 Energy>
104.61

>  <Total Molweight>
456.708

>  <Molweight>
456.708

>  <Monoisotopic Mass>
456.360345

>  <cLogP>
7.1453

>  <cLogS>
-5.928

>  <H-Acceptors>
3

>  <H-Donors>
2

>  <Total Surface Area>
352.64

>  <Relative PSA>
0.11127

>  <Polar Surface Area>
57.53

>  <Druglikeness>
-5.1034

>  <Mutagenic>
none

>  <Tumorigenic>
none

>  <Reproductive Effective>
high

>  <Irritant>
none

>  <Nasty Functions>


>  <Shape Index>
0.45455

>  <Molecular Flexibility>
0.31262

>  <Molecular Complexity>
1.0196

>  <Fragments>
1

>  <Non-H Atoms>
33

>  <Non-C/H Atoms>
3

>  <Metal-Atoms>
0

>  <Electronegative Atoms>
3

>  <Stereo Centers>
7

>  <Rotatable Bonds>
5

>  <Rings Closures>
4

>  <Small Rings>
4

>  <Aromatic Rings>
0

>  <Aromatic Atoms>
0

>  <sp3-Atoms>
27

>  <Symmetric atoms>
2

>  <Amides>
0

>  <Amines>
0

>  <Alkyl-Amines>
0

>  <Aromatic Amines>
0

>  <Aromatic Nitrogens>
0

>  <Basic Nitrogens>
0

>  <Acidic Oxygens>
1

>  <Stereo Configuration>
this enantiomer

> <Gold.Version>
5.8.1

> <Gold.Id.Protein>
ID_2|Prot_COX2_5IKQ_Alig|mol2

> <Gold.Goldscore.Fitness>
-53.1335

> <Gold.Goldscore.Internal.Vdw>
-27.7154

> <Gold.Goldscore.Internal.Torsion>
-8.0968

> <Gold.Goldscore.External.Vdw>
-32.9753

> <Gold.Goldscore.Internal.HBond>
0.0000

> <Gold.Goldscore.External.HBond>
0.7634

> <Gold.Goldscore.Internal.Correction>
-27.2562

> <Gold.Goldscore.Hbonds>
donor molecule, donor type, donor heavy atom, donor atom, acceptor molecule, acceptor atom, score
      P1  H  1377  1389       L1     3  0.08

> <Gold.Goldscore.Internal.Vdw.Weighted>
-27.7154

> <Gold.Goldscore.Internal.Torsion.Weighted>
-8.0968

> <Gold.Goldscore.External.Vdw.Weighted>
-45.3410

> <Gold.Goldscore.Internal.HBond.Weighted>
0.0000

> <Gold.Goldscore.External.HBond.Weighted>
0.7634

> <Gold.Goldscore.Internal.Correction.Weighted>
-27.2562

> <Gold.Protein.RotatedTorsions>
[ 5077 5068 5067 5065 ] final  177.03 input  179.94 | X-H torsion
[ 5157 5152 5151 5148 ] final -154.56 input -179.92 | X-H torsion
[ 5185 5176 5175 5173 ] final   27.16 input -179.99 | X-H torsion
[ 5712 5703 5702 5700 ] final -138.42 input  180.00 | X-H torsion
[ 8036 8031 8030 8027 ] final -115.81 input -179.94 | X-H torsion
[ 2749 2745 2743 2740 ] final    6.93 input  -60.05 | X-H torsion
[ 1366 1361 1360 1357 ] final  153.53 input  -60.09 | X-H torsion
[ 2556 2551 2550 2547 ] final   37.78 input   59.97 | X-H torsion

> <Gold.Protein.ActiveResidues>
 PRO86   VAL89   HIS90   LEU93   THR94   ILE112  MET113  TYR115  VAL116  LEU117 
 THR118  SER119  ARG120  SER121  LEU123  ILE124  GLN192  SER194  PHE198  PHE201 
 ALA202  GLN203  PHE205  THR206  PHE209  PHE210  VAL228  ILE341  ILE343  VAL344 
 ILE345  GLU346  ASP347  TYR348  VAL349  GLN350  HIS351  LEU352  SER353  GLY354 
 TYR355  PHE357  LEU359  LYS360  GLU380  PHE381  ASN382  THR383  LEU384  TYR385 
 HIS386  TRP387  LEU390  VAL434  LEU507  ARG513  ALA516  ILE517  PHE518  GLY519 
 GLU520  THR521  MET522  VAL523  GLU524  VAL525  GLY526  ALA527  PRO528  PHE529 
 SER530  LEU531  LYS532  GLY533  LEU534  MET535  COH609 

> <Gold.Protein.RotatedAtoms>
   18.7763    6.6281    2.5805 H   0  0  0  0  0  0  0  0  0  0  0  0  # atno 1366 bound_to 1361
    5.1822  -10.0961    7.7118 H   0  0  0  0  0  0  0  0  0  0  0  0  # atno 2556 bound_to 2551
   -4.1460    0.2237    0.8661 H   0  0  0  0  0  0  0  0  0  0  0  0  # atno 2749 bound_to 2745
    1.9049   -1.5465    3.6820 H   0  0  0  0  0  0  0  0  0  0  0  0  # atno 5077 bound_to 5068
   12.0528   -1.3348    9.2476 H   0  0  0  0  0  0  0  0  0  0  0  0  # atno 5157 bound_to 5152
   15.6850   -1.0968    4.6478 H   0  0  0  0  0  0  0  0  0  0  0  0  # atno 5185 bound_to 5176
    2.2054    0.4589    2.5205 H   0  0  0  0  0  0  0  0  0  0  0  0  # atno 5712 bound_to 5703
    6.2550    4.4056    3.7119 H   0  0  0  0  0  0  0  0  0  0  0  0  # atno 8036 bound_to 8031
    0.4963   -1.8614    4.1040 LP  0  0  0  0  0  0  0  0  0  0  0  0  # atno 8267 bound_to 5068
    1.7069   -2.9554    4.1689 LP  0  0  0  0  0  0  0  0  0  0  0  0  # atno 8268 bound_to 5068
   13.0167   -2.4895    9.1962 LP  0  0  0  0  0  0  0  0  0  0  0  0  # atno 8279 bound_to 5152
   11.4016   -2.6890    9.3310 LP  0  0  0  0  0  0  0  0  0  0  0  0  # atno 8280 bound_to 5152
   16.7080   -0.0662    5.0351 LP  0  0  0  0  0  0  0  0  0  0  0  0  # atno 8281 bound_to 5176
   15.1137    0.2668    4.9175 LP  0  0  0  0  0  0  0  0  0  0  0  0  # atno 8282 bound_to 5176
    3.1410   -0.7154    2.4534 LP  0  0  0  0  0  0  0  0  0  0  0  0  # atno 8283 bound_to 5703
    1.5836   -0.8478    2.9263 LP  0  0  0  0  0  0  0  0  0  0  0  0  # atno 8284 bound_to 5703
    4.9837    3.7037    3.3233 LP  0  0  0  0  0  0  0  0  0  0  0  0  # atno 8309 bound_to 8031
    5.1234    5.3303    3.3595 LP  0  0  0  0  0  0  0  0  0  0  0  0  # atno 8310 bound_to 8031
   -2.9115   -0.5821    1.1664 LP  0  0  0  0  0  0  0  0  0  0  0  0  # atno 8323 bound_to 2745
   -3.3340   -0.1387   -0.3474 LP  0  0  0  0  0  0  0  0  0  0  0  0  # atno 8324 bound_to 2745
   17.6256    7.3505    1.9338 LP  0  0  0  0  0  0  0  0  0  0  0  0  # atno 8335 bound_to 1361
   18.1112    7.6483    3.4642 LP  0  0  0  0  0  0  0  0  0  0  0  0  # atno 8336 bound_to 1361
    4.6174   -8.7127    7.8887 LP  0  0  0  0  0  0  0  0  0  0  0  0  # atno 8342 bound_to 2551
    4.7135   -9.4515    6.4355 LP  0  0  0  0  0  0  0  0  0  0  0  0  # atno 8343 bound_to 2551

