
123|LMW3_p|sdf|123|dock1
  -GOLD-   6 922 5113D 1   1.00000     0.00000

 89 92  0  0  0  0  0  0  0  0  2 V2000
    5.7610   -2.4204    2.0740 O   0  0  0  0  0  0  0  0  0  0  0  0
    6.7118   -1.6430    1.9656 C   0  0  0  0  0  0  0  0  0  0  0  0
    6.5929   -0.1488    2.3051 C   0  0  0  0  0  0  0  0  0  0  0  0
    8.0082   -2.1290    1.3679 C   0  0  0  0  0  0  0  0  0  0  0  0
    7.9185    0.3464    2.9804 C   0  0  1  0  0  0  0  0  0  0  0  0
    6.1842    0.6004    1.0283 C   0  0  0  0  0  0  0  0  0  0  0  0
    5.4249    0.0056    3.3149 C   0  0  0  0  0  0  0  0  0  0  0  0
    9.2012   -1.6622    2.1862 C   0  0  0  0  0  0  0  0  0  0  0  0
    9.2780   -0.1223    2.3393 C   0  0  2  0  0  0  0  0  0  0  0  0
    7.9610    1.8609    3.2357 C   0  0  0  0  0  0  0  0  0  0  0  0
   10.4433    0.3053    3.2738 C   0  0  0  0  0  0  0  0  0  0  0  0
    9.5961    0.5168    0.9672 C   0  0  0  0  0  0  0  0  0  0  0  0
    9.0853    2.2230    4.2057 C   0  0  0  0  0  0  0  0  0  0  0  0
   10.3364    1.3809    4.0977 C   0  0  0  0  0  0  0  0  0  0  0  0
   11.7388   -0.5087    3.1862 C   0  0  0  0  0  0  0  0  0  0  0  0
   11.4919    1.7522    5.0315 C   0  0  1  0  0  0  0  0  0  0  0  0
   12.9455   -0.0281    4.0190 C   0  0  0  0  0  0  0  0  0  0  0  0
   12.8730    1.4740    4.3160 C   0  0  2  0  0  0  0  0  0  0  0  0
   11.6890    3.2397    5.4287 C   0  0  1  0  0  0  0  0  0  0  0  0
   11.2420    0.9119    6.3256 C   0  0  0  0  0  0  0  0  0  0  0  0
   13.8849    2.0299    5.3650 C   0  0  2  0  0  0  0  0  0  0  0  0
   13.0421    2.2491    2.9701 C   0  0  0  0  0  0  0  0  0  0  0  0
   10.8036    3.6435    6.4832 O   0  0  0  0  0  0  0  0  0  0  0  0
   13.1637    3.3126    5.8869 C   0  0  0  0  0  0  0  0  0  0  0  0
   15.3450    2.3378    4.9353 C   0  0  1  0  0  0  0  0  0  0  0  0
   11.0920    4.8373    7.0687 C   0  0  0  0  0  0  0  0  0  0  0  0
   16.1384    2.8825    6.1125 C   0  0  0  0  0  0  0  0  0  0  0  0
   16.1421    1.1713    4.3197 C   0  0  0  0  0  0  0  0  0  0  0  0
   11.9945    5.5930    6.7390 O   0  0  0  0  0  0  0  0  0  0  0  0
   10.1330    5.0999    8.1887 C   0  0  0  0  0  0  0  0  0  0  0  0
   15.9216    2.6898    7.2969 O   0  0  0  0  0  0  0  0  0  0  0  0
   17.1874    3.6328    5.7227 O   0  5  0  0  0  0  0  0  0  0  0  0
   17.6509    1.4236    4.1657 C   0  0  0  0  0  0  0  0  0  0  0  0
   18.4034    0.2242    3.5441 C   0  0  2  0  0  0  0  0  0  0  0  0
   18.2027    0.1009    2.0050 C   0  0  0  0  0  0  0  0  0  0  0  0
   18.0301   -1.0896    4.2453 C   0  0  0  0  0  0  0  0  0  0  0  0
   18.6002   -1.2863    1.4864 C   0  0  0  0  0  0  0  0  0  0  0  0
   18.9261    1.1808    1.1959 C   0  0  0  0  0  0  0  0  0  0  0  0
    8.0976   -1.7480    0.3721 H   0  0  0  0  0  0  0  0  0  0  0  0
    7.9986   -3.1989    1.3637 H   0  0  0  0  0  0  0  0  0  0  0  0
    7.8550   -0.1712    3.9147 H   0  0  0  0  0  0  0  0  0  0  0  0
    5.1592    0.3908    0.8043 H   0  0  0  0  0  0  0  0  0  0  0  0
    6.8000    0.2798    0.2141 H   0  0  0  0  0  0  0  0  0  0  0  0
    6.3088    1.6527    1.1768 H   0  0  0  0  0  0  0  0  0  0  0  0
    5.1873    1.0426    3.4296 H   0  0  0  0  0  0  0  0  0  0  0  0
    5.7155   -0.4006    4.2612 H   0  0  0  0  0  0  0  0  0  0  0  0
    4.5664   -0.5188    2.9502 H   0  0  0  0  0  0  0  0  0  0  0  0
   10.0953   -2.0002    1.7053 H   0  0  0  0  0  0  0  0  0  0  0  0
    9.0902   -2.0721    3.1683 H   0  0  0  0  0  0  0  0  0  0  0  0
    7.0259    2.1715    3.6527 H   0  0  0  0  0  0  0  0  0  0  0  0
    8.1410    2.3579    2.3055 H   0  0  0  0  0  0  0  0  0  0  0  0
   10.4739    1.1229    1.0509 H   0  0  0  0  0  0  0  0  0  0  0  0
    8.7717    1.1240    0.6568 H   0  0  0  0  0  0  0  0  0  0  0  0
    9.7629   -0.2545    0.2446 H   0  0  0  0  0  0  0  0  0  0  0  0
    8.7062    2.1234    5.2013 H   0  0  0  0  0  0  0  0  0  0  0  0
    9.3804    3.2200    3.9533 H   0  0  0  0  0  0  0  0  0  0  0  0
   12.0420   -0.5174    2.1601 H   0  0  0  0  0  0  0  0  0  0  0  0
   11.4873   -1.4628    3.6000 H   0  0  0  0  0  0  0  0  0  0  0  0
   13.8441   -0.2301    3.4746 H   0  0  0  0  0  0  0  0  0  0  0  0
   12.9340   -0.5515    4.9522 H   0  0  0  0  0  0  0  0  0  0  0  0
   11.4691    3.8999    4.6159 H   0  0  0  0  0  0  0  0  0  0  0  0
   12.1597    0.4606    6.6405 H   0  0  0  0  0  0  0  0  0  0  0  0
   10.5208    0.1483    6.1214 H   0  0  0  0  0  0  0  0  0  0  0  0
   10.8746    1.5514    7.1008 H   0  0  0  0  0  0  0  0  0  0  0  0
   14.0828    1.2587    6.0799 H   0  0  0  0  0  0  0  0  0  0  0  0
   12.1745    2.1007    2.3616 H   0  0  0  0  0  0  0  0  0  0  0  0
   13.9059    1.8843    2.4545 H   0  0  0  0  0  0  0  0  0  0  0  0
   13.1617    3.2929    3.1721 H   0  0  0  0  0  0  0  0  0  0  0  0
   13.2124    3.3493    6.9552 H   0  0  0  0  0  0  0  0  0  0  0  0
   13.6344    4.1919    5.4994 H   0  0  0  0  0  0  0  0  0  0  0  0
   15.2261    3.0562    4.1514 H   0  0  0  0  0  0  0  0  0  0  0  0
   15.7389    0.9697    3.3493 H   0  0  0  0  0  0  0  0  0  0  0  0
   16.0444    0.3512    4.9999 H   0  0  0  0  0  0  0  0  0  0  0  0
    9.9987    6.1552    8.3032 H   0  0  0  0  0  0  0  0  0  0  0  0
   10.5235    4.6894    9.0963 H   0  0  0  0  0  0  0  0  0  0  0  0
    9.1914    4.6426    7.9665 H   0  0  0  0  0  0  0  0  0  0  0  0
   18.0640    1.6213    5.1328 H   0  0  0  0  0  0  0  0  0  0  0  0
   17.7705    2.2550    3.5029 H   0  0  0  0  0  0  0  0  0  0  0  0
   19.4440    0.4173    3.7014 H   0  0  0  0  0  0  0  0  0  0  0  0
   17.1532    0.2474    1.8565 H   0  0  0  0  0  0  0  0  0  0  0  0
   18.8136   -1.8044    4.1040 H   0  0  0  0  0  0  0  0  0  0  0  0
   17.1207   -1.4701    3.8292 H   0  0  0  0  0  0  0  0  0  0  0  0
   17.8958   -0.9098    5.2915 H   0  0  0  0  0  0  0  0  0  0  0  0
   17.8212   -1.9860    1.7063 H   0  0  0  0  0  0  0  0  0  0  0  0
   19.5057   -1.5992    1.9630 H   0  0  0  0  0  0  0  0  0  0  0  0
   18.7513   -1.2416    0.4280 H   0  0  0  0  0  0  0  0  0  0  0  0
   19.9796    1.1108    1.3694 H   0  0  0  0  0  0  0  0  0  0  0  0
   18.5782    2.1463    1.4986 H   0  0  0  0  0  0  0  0  0  0  0  0
   18.7261    1.0401    0.1542 H   0  0  0  0  0  0  0  0  0  0  0  0
  1  2  2  0  0  0  0
  2  3  1  0  0  0  0
  2  4  1  0  0  0  0
  3  5  1  0  0  0  0
  3  6  1  0  0  0  0
  3  7  1  0  0  0  0
  4  8  1  0  0  0  0
  4 39  1  0  0  0  0
  4 40  1  0  0  0  0
  5  9  1  0  0  0  0
  5 10  1  0  0  0  0
  5 41  1  0  0  0  0
  6 42  1  0  0  0  0
  6 43  1  0  0  0  0
  6 44  1  0  0  0  0
  7 45  1  0  0  0  0
  7 46  1  0  0  0  0
  7 47  1  0  0  0  0
  8  9  1  0  0  0  0
  8 48  1  0  0  0  0
  8 49  1  0  0  0  0
  9 11  1  0  0  0  0
  9 12  1  0  0  0  0
 10 13  1  0  0  0  0
 10 50  1  0  0  0  0
 10 51  1  0  0  0  0
 11 14  2  0  0  0  0
 11 15  1  0  0  0  0
 12 52  1  0  0  0  0
 12 53  1  0  0  0  0
 12 54  1  0  0  0  0
 13 14  1  0  0  0  0
 13 55  1  0  0  0  0
 13 56  1  0  0  0  0
 14 16  1  0  0  0  0
 15 17  1  0  0  0  0
 15 57  1  0  0  0  0
 15 58  1  0  0  0  0
 16 18  1  0  0  0  0
 16 19  1  0  0  0  0
 16 20  1  0  0  0  0
 17 18  1  0  0  0  0
 17 59  1  0  0  0  0
 17 60  1  0  0  0  0
 18 21  1  0  0  0  0
 18 22  1  0  0  0  0
 19 23  1  0  0  0  0
 19 24  1  0  0  0  0
 19 61  1  0  0  0  0
 20 62  1  0  0  0  0
 20 63  1  0  0  0  0
 20 64  1  0  0  0  0
 21 25  1  0  0  0  0
 21 24  1  0  0  0  0
 21 65  1  0  0  0  0
 22 66  1  0  0  0  0
 22 67  1  0  0  0  0
 22 68  1  0  0  0  0
 23 26  1  0  0  0  0
 24 69  1  0  0  0  0
 24 70  1  0  0  0  0
 25 27  1  0  0  0  0
 25 28  1  0  0  0  0
 25 71  1  0  0  0  0
 26 29  2  0  0  0  0
 26 30  1  0  0  0  0
 27 31  2  0  0  0  0
 27 32  1  0  0  0  0
 28 33  1  0  0  0  0
 28 72  1  0  0  0  0
 28 73  1  0  0  0  0
 30 74  1  0  0  0  0
 30 75  1  0  0  0  0
 30 76  1  0  0  0  0
 33 34  1  0  0  0  0
 33 77  1  0  0  0  0
 33 78  1  0  0  0  0
 34 35  1  0  0  0  0
 34 36  1  0  0  0  0
 34 79  1  0  0  0  0
 35 37  1  0  0  0  0
 35 38  1  0  0  0  0
 35 80  1  0  0  0  0
 36 81  1  0  0  0  0
 36 82  1  0  0  0  0
 36 83  1  0  0  0  0
 37 84  1  0  0  0  0
 37 85  1  0  0  0  0
 37 86  1  0  0  0  0
 38 87  1  0  0  0  0
 38 88  1  0  0  0  0
 38 89  1  0  0  0  0
M  CHG  1  32  -1
M  END
>  <Code-name>
123

>  <Compound>
acetyl-3-oxo-sulfurenic acid (64)

>  <Specie>
Inonotus obliquus.

>  <Reference>
GrÃ¼ndemann (2020)

>  <Organism>
N/A

>  <Smiles>
CC(C)[C@H](C)CC[C@@H]([C@@H](C[C@@H]1OC(C)=O)[C@@](C)(CC2)[C@]1(C)C(CC1)=C2[C@@](C)(CC2)[C@@H]1C(C)(C)C2=O)C(O)=O

>  <MMFF94 Energy>
93.447

>  <Total Molweight>
528.771

>  <Molweight>
528.771

>  <Monoisotopic Mass>
528.381475

>  <cLogP>
7.0039

>  <cLogS>
-6.414

>  <H-Acceptors>
5

>  <H-Donors>
1

>  <Total Surface Area>
402.84

>  <Relative PSA>
0.15445

>  <Polar Surface Area>
80.67

>  <Druglikeness>
-6.7866

>  <Mutagenic>
none

>  <Tumorigenic>
none

>  <Reproductive Effective>
none

>  <Irritant>
none

>  <Nasty Functions>


>  <Shape Index>
0.42105

>  <Molecular Flexibility>
0.32319

>  <Molecular Complexity>
1.0405

>  <Fragments>
1

>  <Non-H Atoms>
38

>  <Non-C/H Atoms>
5

>  <Metal-Atoms>
0

>  <Electronegative Atoms>
5

>  <Stereo Centers>
8

>  <Rotatable Bonds>
8

>  <Rings Closures>
4

>  <Small Rings>
4

>  <Aromatic Rings>
0

>  <Aromatic Atoms>
0

>  <sp3-Atoms>
30

>  <Symmetric atoms>
2

>  <Amides>
0

>  <Amines>
0

>  <Alkyl-Amines>
0

>  <Aromatic Amines>
0

>  <Aromatic Nitrogens>
0

>  <Basic Nitrogens>
0

>  <Acidic Oxygens>
1

>  <Stereo Configuration>
this enantiomer

> <Gold.Version>
5.8.1

> <Gold.Id.Protein>
ID_2|Prot_COX2_5IKQ_Alig|mol2

> <Gold.Goldscore.Fitness>
-51.8277

> <Gold.Goldscore.Internal.Vdw>
-32.7999

> <Gold.Goldscore.Internal.Torsion>
-12.1234

> <Gold.Goldscore.External.Vdw>
-27.4485

> <Gold.Goldscore.Internal.HBond>
0.0000

> <Gold.Goldscore.External.HBond>
0.2573

> <Gold.Goldscore.Internal.Correction>
-30.5800

> <Gold.Goldscore.Hbonds>
donor molecule, donor type, donor heavy atom, donor atom, acceptor molecule, acceptor atom, score
      P1  H  1377  1389       L1    32  0.03

> <Gold.Goldscore.Internal.Vdw.Weighted>
-32.7999

> <Gold.Goldscore.Internal.Torsion.Weighted>
-12.1234

> <Gold.Goldscore.External.Vdw.Weighted>
-37.7417

> <Gold.Goldscore.Internal.HBond.Weighted>
0.0000

> <Gold.Goldscore.External.HBond.Weighted>
0.2573

> <Gold.Goldscore.Internal.Correction.Weighted>
-30.5800

> <Gold.Protein.RotatedTorsions>
[ 5077 5068 5067 5065 ] final -147.25 input  179.94 | X-H torsion
[ 5157 5152 5151 5148 ] final  123.92 input -179.92 | X-H torsion
[ 5185 5176 5175 5173 ] final   56.54 input -179.99 | X-H torsion
[ 5712 5703 5702 5700 ] final -138.97 input  180.00 | X-H torsion
[ 8036 8031 8030 8027 ] final   96.55 input -179.94 | X-H torsion
[ 2749 2745 2743 2740 ] final -106.82 input  -60.05 | X-H torsion
[ 1366 1361 1360 1357 ] final  160.87 input  -60.09 | X-H torsion
[ 2556 2551 2550 2547 ] final  144.01 input   59.97 | X-H torsion

> <Gold.Protein.ActiveResidues>
 PRO86   VAL89   HIS90   LEU93   THR94   ILE112  MET113  TYR115  VAL116  LEU117 
 THR118  SER119  ARG120  SER121  LEU123  ILE124  GLN192  SER194  PHE198  PHE201 
 ALA202  GLN203  PHE205  THR206  PHE209  PHE210  VAL228  ILE341  ILE343  VAL344 
 ILE345  GLU346  ASP347  TYR348  VAL349  GLN350  HIS351  LEU352  SER353  GLY354 
 TYR355  PHE357  LEU359  LYS360  GLU380  PHE381  ASN382  THR383  LEU384  TYR385 
 HIS386  TRP387  LEU390  VAL434  LEU507  ARG513  ALA516  ILE517  PHE518  GLY519 
 GLU520  THR521  MET522  VAL523  GLU524  VAL525  GLY526  ALA527  PRO528  PHE529 
 SER530  LEU531  LYS532  GLY533  LEU534  MET535  COH609 

> <Gold.Protein.RotatedAtoms>
   18.8018    6.6512    2.6757 H   0  0  0  0  0  0  0  0  0  0  0  0  # atno 1366 bound_to 1361
    4.7811   -9.6425    6.6019 H   0  0  0  0  0  0  0  0  0  0  0  0  # atno 2556 bound_to 2551
   -3.0423   -0.4525    1.1400 H   0  0  0  0  0  0  0  0  0  0  0  0  # atno 2749 bound_to 2745
    2.1533   -1.9550    3.7588 H   0  0  0  0  0  0  0  0  0  0  0  0  # atno 5077 bound_to 5068
   12.9077   -1.9081    9.1681 H   0  0  0  0  0  0  0  0  0  0  0  0  # atno 5157 bound_to 5152
   15.3253   -0.9227    4.6497 H   0  0  0  0  0  0  0  0  0  0  0  0  # atno 5185 bound_to 5176
    2.2127    0.4595    2.5183 H   0  0  0  0  0  0  0  0  0  0  0  0  # atno 5712 bound_to 5703
    4.8501    4.1133    3.2276 H   0  0  0  0  0  0  0  0  0  0  0  0  # atno 8036 bound_to 8031
    0.7608   -1.3996    3.8765 LP  0  0  0  0  0  0  0  0  0  0  0  0  # atno 8267 bound_to 5068
    1.1450   -2.9280    4.3045 LP  0  0  0  0  0  0  0  0  0  0  0  0  # atno 8268 bound_to 5068
   11.9146   -3.0331    9.2833 LP  0  0  0  0  0  0  0  0  0  0  0  0  # atno 8279 bound_to 5152
   11.4813   -1.4596    9.3390 LP  0  0  0  0  0  0  0  0  0  0  0  0  # atno 8280 bound_to 5152
   16.7515   -0.5258    4.9088 LP  0  0  0  0  0  0  0  0  0  0  0  0  # atno 8281 bound_to 5176
   15.5022    0.5174    5.0415 LP  0  0  0  0  0  0  0  0  0  0  0  0  # atno 8282 bound_to 5176
    3.1375   -0.7236    2.4555 LP  0  0  0  0  0  0  0  0  0  0  0  0  # atno 8283 bound_to 5703
    1.5784   -0.8403    2.9269 LP  0  0  0  0  0  0  0  0  0  0  0  0  # atno 8284 bound_to 5703
    5.5440    5.4178    3.5045 LP  0  0  0  0  0  0  0  0  0  0  0  0  # atno 8309 bound_to 8031
    6.2486    3.9668    3.7594 LP  0  0  0  0  0  0  0  0  0  0  0  0  # atno 8310 bound_to 8031
   -3.2505   -0.1899   -0.3267 LP  0  0  0  0  0  0  0  0  0  0  0  0  # atno 8323 bound_to 2745
   -4.3169    0.2789    0.8177 LP  0  0  0  0  0  0  0  0  0  0  0  0  # atno 8324 bound_to 2745
   17.6849    7.2634    1.8746 LP  0  0  0  0  0  0  0  0  0  0  0  0  # atno 8335 bound_to 1361
   18.0213    7.7078    3.4096 LP  0  0  0  0  0  0  0  0  0  0  0  0  # atno 8336 bound_to 1361
    5.2643  -10.0744    7.9599 LP  0  0  0  0  0  0  0  0  0  0  0  0  # atno 8342 bound_to 2551
    4.5464   -8.6324    7.6922 LP  0  0  0  0  0  0  0  0  0  0  0  0  # atno 8343 bound_to 2551

