
124|LMW3_p|sdf|124|dock5
  -GOLD-   6 922 5153D 1   1.00000     0.00000

 84 88  0  0  0  0  0  0  0  0  1 V2000
   13.7389   -2.1305    5.4413 O   0  0  0  0  0  0  0  0  0  0  0  0
   13.1414   -2.9443    4.7382 C   0  0  0  0  0  0  0  0  0  0  0  0
   11.9088   -2.5654    3.9975 C   0  0  0  0  0  0  0  0  0  0  0  0
   13.6865   -4.3240    4.5388 C   0  0  0  0  0  0  0  0  0  0  0  0
   11.1849   -3.5301    3.3681 C   0  0  0  0  0  0  0  0  0  0  0  0
   11.5747   -1.0753    3.8899 C   0  0  1  0  0  0  0  0  0  0  0  0
   12.5714   -5.3774    4.6329 C   0  0  1  0  0  0  0  0  0  0  0  0
   11.4822   -5.0758    3.5147 C   0  0  2  0  0  0  0  0  0  0  0  0
    9.9589   -3.1166    2.5237 C   0  0  2  0  0  0  0  0  0  0  0  0
   10.0122   -0.8947    3.7539 C   0  0  2  0  0  0  0  0  0  0  0  0
   11.8363   -0.1118    5.0827 C   0  0  1  0  0  0  0  0  0  0  0  0
   12.4050   -0.5815    2.6623 C   0  0  0  0  0  0  0  0  0  0  0  0
   13.1750   -6.8558    4.6553 C   0  0  0  0  0  0  0  0  0  0  0  0
   11.9700   -5.6518    2.1588 C   0  0  0  0  0  0  0  0  0  0  0  0
   10.1415   -5.7454    3.9119 C   0  0  0  0  0  0  0  0  0  0  0  0
   10.1482   -3.5411    1.1813 O   0  0  0  0  0  0  0  0  0  0  0  0
    9.5817   -1.6177    2.4793 C   0  0  0  0  0  0  0  0  0  0  0  0
    9.8669    0.6575    3.7583 C   0  0  2  0  0  0  0  0  0  0  0  0
    9.2055   -1.4915    4.9533 C   0  0  0  0  0  0  0  0  0  0  0  0
   13.1692    0.3689    5.1710 O   0  0  0  0  0  0  0  0  0  0  0  0
   10.8935    1.0860    4.8434 C   0  0  0  0  0  0  0  0  0  0  0  0
   13.5573   -7.3267    3.2277 C   0  0  1  0  0  0  0  0  0  0  0  0
   14.4317   -6.9405    5.5694 C   0  0  0  0  0  0  0  0  0  0  0  0
   12.1850   -7.8735    5.2816 C   0  0  0  0  0  0  0  0  0  0  0  0
   12.4400   -7.1061    2.2129 C   0  0  0  0  0  0  0  0  0  0  0  0
    8.4717    1.2659    4.0140 C   0  0  2  0  0  0  0  0  0  0  0  0
   14.7175   -6.6310    2.7724 O   0  0  0  0  0  0  0  0  0  0  0  0
    7.3752    0.9978    2.9664 C   0  0  2  0  0  0  0  0  0  0  0  0
    8.4763    2.7968    4.0621 C   0  0  0  0  0  0  0  0  0  0  0  0
    7.8618    1.1694    1.6335 O   0  0  0  0  0  0  0  0  0  0  0  0
    6.3035    2.0967    3.1892 C   0  0  2  0  0  0  0  0  0  0  0  0
    6.9904    3.1220    4.1189 C   0  0  0  0  0  0  0  0  0  0  0  0
    4.9573    1.5634    3.7410 C   0  0  0  0  0  0  0  0  0  0  0  0
    5.2046    0.8261    4.9421 O   0  0  0  0  0  0  0  0  0  0  0  0
    3.9879    2.7098    4.0656 C   0  0  0  0  0  0  0  0  0  0  0  0
    4.2818    0.6169    2.7380 C   0  0  0  0  0  0  0  0  0  0  0  0
   14.4196   -4.5226    5.2924 H   0  0  0  0  0  0  0  0  0  0  0  0
   14.1251   -4.3790    3.5644 H   0  0  0  0  0  0  0  0  0  0  0  0
   12.0513   -5.3144    5.5658 H   0  0  0  0  0  0  0  0  0  0  0  0
    9.1477   -3.5952    3.0313 H   0  0  0  0  0  0  0  0  0  0  0  0
   11.6663   -0.6393    5.9980 H   0  0  0  0  0  0  0  0  0  0  0  0
   12.1297    0.4255    2.4273 H   0  0  0  0  0  0  0  0  0  0  0  0
   12.2062   -1.2114    1.8206 H   0  0  0  0  0  0  0  0  0  0  0  0
   13.4480   -0.6202    2.8984 H   0  0  0  0  0  0  0  0  0  0  0  0
   12.7859   -5.0507    1.8157 H   0  0  0  0  0  0  0  0  0  0  0  0
   11.1260   -5.6319    1.5014 H   0  0  0  0  0  0  0  0  0  0  0  0
    9.4684   -5.7166    3.0807 H   0  0  0  0  0  0  0  0  0  0  0  0
    9.7109   -5.2191    4.7381 H   0  0  0  0  0  0  0  0  0  0  0  0
   10.3200   -6.7628    4.1912 H   0  0  0  0  0  0  0  0  0  0  0  0
    9.3711   -3.2999    0.6533 H   0  0  0  0  0  0  0  0  0  0  0  0
    8.5209   -1.5291    2.3707 H   0  0  0  0  0  0  0  0  0  0  0  0
   10.0880   -1.1683    1.6508 H   0  0  0  0  0  0  0  0  0  0  0  0
   10.0392    1.0310    2.7705 H   0  0  0  0  0  0  0  0  0  0  0  0
    9.4050   -0.9210    5.8363 H   0  0  0  0  0  0  0  0  0  0  0  0
    9.5005   -2.5079    5.1110 H   0  0  0  0  0  0  0  0  0  0  0  0
    8.1591   -1.4538    4.7332 H   0  0  0  0  0  0  0  0  0  0  0  0
   13.2291    1.0274    5.8807 H   0  0  0  0  0  0  0  0  0  0  0  0
   11.4545    1.9312    4.5030 H   0  0  0  0  0  0  0  0  0  0  0  0
   10.3944    1.3617    5.7487 H   0  0  0  0  0  0  0  0  0  0  0  0
   13.7440   -8.3779    3.2995 H   0  0  0  0  0  0  0  0  0  0  0  0
   14.1929   -6.5595    6.5403 H   0  0  0  0  0  0  0  0  0  0  0  0
   15.2227   -6.3597    5.1430 H   0  0  0  0  0  0  0  0  0  0  0  0
   14.7436   -7.9606    5.6534 H   0  0  0  0  0  0  0  0  0  0  0  0
   12.7296   -8.5938    5.8556 H   0  0  0  0  0  0  0  0  0  0  0  0
   11.6456   -8.3715    4.5033 H   0  0  0  0  0  0  0  0  0  0  0  0
   11.4972   -7.3567    5.9179 H   0  0  0  0  0  0  0  0  0  0  0  0
   12.7974   -7.3866    1.2441 H   0  0  0  0  0  0  0  0  0  0  0  0
   11.6059   -7.7040    2.5157 H   0  0  0  0  0  0  0  0  0  0  0  0
    8.2502    0.7762    4.9392 H   0  0  0  0  0  0  0  0  0  0  0  0
   15.0233   -7.0228    1.9393 H   0  0  0  0  0  0  0  0  0  0  0  0
    7.0141   -0.0037    3.0750 H   0  0  0  0  0  0  0  0  0  0  0  0
    8.9307    3.2109    3.1864 H   0  0  0  0  0  0  0  0  0  0  0  0
    9.0353    3.1988    4.8812 H   0  0  0  0  0  0  0  0  0  0  0  0
    7.1516    0.9744    1.0023 H   0  0  0  0  0  0  0  0  0  0  0  0
    6.0002    2.5392    2.2635 H   0  0  0  0  0  0  0  0  0  0  0  0
    6.8129    4.1184    3.7716 H   0  0  0  0  0  0  0  0  0  0  0  0
    6.6113    3.0661    5.1179 H   0  0  0  0  0  0  0  0  0  0  0  0
    5.6596   -0.0026    4.7249 H   0  0  0  0  0  0  0  0  0  0  0  0
    4.4127    3.3317    4.8257 H   0  0  0  0  0  0  0  0  0  0  0  0
    3.0604    2.3050    4.4132 H   0  0  0  0  0  0  0  0  0  0  0  0
    3.8153    3.2913    3.1842 H   0  0  0  0  0  0  0  0  0  0  0  0
    5.0120    0.2477    2.0485 H   0  0  0  0  0  0  0  0  0  0  0  0
    3.5222    1.1475    2.2028 H   0  0  0  0  0  0  0  0  0  0  0  0
    3.8404   -0.2039    3.2637 H   0  0  0  0  0  0  0  0  0  0  0  0
  1  2  2  0  0  0  0
  2  3  1  0  0  0  0
  2  4  1  0  0  0  0
  3  5  2  0  0  0  0
  3  6  1  0  0  0  0
  4  7  1  0  0  0  0
  4 37  1  0  0  0  0
  4 38  1  0  0  0  0
  5  8  1  0  0  0  0
  5  9  1  0  0  0  0
  6 10  1  0  0  0  0
  6 11  1  0  0  0  0
  6 12  1  0  0  0  0
  7 13  1  0  0  0  0
  7  8  1  0  0  0  0
  7 39  1  0  0  0  0
  8 14  1  0  0  0  0
  8 15  1  0  0  0  0
  9 16  1  0  0  0  0
  9 17  1  0  0  0  0
  9 40  1  0  0  0  0
 10 18  1  0  0  0  0
 10 19  1  0  0  0  0
 10 17  1  0  0  0  0
 11 20  1  0  0  0  0
 11 21  1  0  0  0  0
 11 41  1  0  0  0  0
 12 42  1  0  0  0  0
 12 43  1  0  0  0  0
 12 44  1  0  0  0  0
 13 22  1  0  0  0  0
 13 23  1  0  0  0  0
 13 24  1  0  0  0  0
 14 25  1  0  0  0  0
 14 45  1  0  0  0  0
 14 46  1  0  0  0  0
 15 47  1  0  0  0  0
 15 48  1  0  0  0  0
 15 49  1  0  0  0  0
 16 50  1  0  0  0  0
 17 51  1  0  0  0  0
 17 52  1  0  0  0  0
 18 26  1  0  0  0  0
 18 21  1  0  0  0  0
 18 53  1  0  0  0  0
 19 54  1  0  0  0  0
 19 55  1  0  0  0  0
 19 56  1  0  0  0  0
 20 57  1  0  0  0  0
 21 58  1  0  0  0  0
 21 59  1  0  0  0  0
 22 27  1  0  0  0  0
 22 25  1  0  0  0  0
 22 60  1  0  0  0  0
 23 61  1  0  0  0  0
 23 62  1  0  0  0  0
 23 63  1  0  0  0  0
 24 64  1  0  0  0  0
 24 65  1  0  0  0  0
 24 66  1  0  0  0  0
 25 67  1  0  0  0  0
 25 68  1  0  0  0  0
 26 28  1  0  0  0  0
 26 29  1  0  0  0  0
 26 69  1  0  0  0  0
 27 70  1  0  0  0  0
 28 30  1  0  0  0  0
 28 31  1  0  0  0  0
 28 71  1  0  0  0  0
 29 32  1  0  0  0  0
 29 72  1  0  0  0  0
 29 73  1  0  0  0  0
 30 74  1  0  0  0  0
 31 33  1  0  0  0  0
 31 32  1  0  0  0  0
 31 75  1  0  0  0  0
 32 76  1  0  0  0  0
 32 77  1  0  0  0  0
 33 34  1  0  0  0  0
 33 35  1  0  0  0  0
 33 36  1  0  0  0  0
 34 78  1  0  0  0  0
 35 79  1  0  0  0  0
 35 80  1  0  0  0  0
 35 81  1  0  0  0  0
 36 82  1  0  0  0  0
 36 83  1  0  0  0  0
 36 84  1  0  0  0  0
M  END
>  <Code-name>
124

>  <Compound>
Inonotusol A

>  <Specie>
Inonotus obliquus

>  <Reference>
GrÃ¼ndemann (2020)

>  <Organism>
Antitumoral Activity

>  <Smiles>
CC(C)([C@@H](CC[C@@H]1[C@@H](C[C@@H]2O)[C@@](C)(C[C@H]3O)[C@]2(C)C(C(C2)=O)=C3[C@@](C)(CC3)[C@H]2C(C)(C)[C@@H]3O)[C@H]1O)O

>  <MMFF94 Energy>
145.17

>  <Total Molweight>
504.705

>  <Molweight>
504.705

>  <Monoisotopic Mass>
504.345090

>  <cLogP>
3.397

>  <cLogS>
-4.698

>  <H-Acceptors>
6

>  <H-Donors>
5

>  <Total Surface Area>
352.61

>  <Relative PSA>
0.22274

>  <Polar Surface Area>
118.22

>  <Druglikeness>
-1.285

>  <Mutagenic>
none

>  <Tumorigenic>
none

>  <Reproductive Effective>
none

>  <Irritant>
none

>  <Nasty Functions>


>  <Shape Index>
0.41667

>  <Molecular Flexibility>
0.18737

>  <Molecular Complexity>
1.0469

>  <Fragments>
1

>  <Non-H Atoms>
36

>  <Non-C/H Atoms>
6

>  <Metal-Atoms>
0

>  <Electronegative Atoms>
6

>  <Stereo Centers>
11

>  <Rotatable Bonds>
2

>  <Rings Closures>
5

>  <Small Rings>
5

>  <Aromatic Rings>
0

>  <Aromatic Atoms>
0

>  <sp3-Atoms>
32

>  <Symmetric atoms>
2

>  <Amides>
0

>  <Amines>
0

>  <Alkyl-Amines>
0

>  <Aromatic Amines>
0

>  <Aromatic Nitrogens>
0

>  <Basic Nitrogens>
0

>  <Acidic Oxygens>
0

>  <Stereo Configuration>
this enantiomer

> <Gold.Version>
5.8.1

> <Gold.Id.Protein>
ID_2|Prot_COX2_5IKQ_Alig|mol2

> <Gold.Goldscore.Fitness>
-74.9931

> <Gold.Goldscore.Internal.Vdw>
-37.1449

> <Gold.Goldscore.Internal.Torsion>
-5.1532

> <Gold.Goldscore.External.Vdw>
-53.5015

> <Gold.Goldscore.Internal.HBond>
0.0000

> <Gold.Goldscore.External.HBond>
2.5227

> <Gold.Goldscore.Internal.Correction>
-38.3469

> <Gold.Goldscore.Hbonds>
donor molecule, donor type, donor heavy atom, donor atom, acceptor molecule, acceptor atom, score
      P1  H  5176  5185       L1    20  0.30
      P1  H  7785  7796       L1    27  0.32

> <Gold.Goldscore.Internal.Vdw.Weighted>
-37.1449

> <Gold.Goldscore.Internal.Torsion.Weighted>
-5.1532

> <Gold.Goldscore.External.Vdw.Weighted>
-73.5646

> <Gold.Goldscore.Internal.HBond.Weighted>
0.0000

> <Gold.Goldscore.External.HBond.Weighted>
2.5227

> <Gold.Goldscore.Internal.Correction.Weighted>
-38.3469

> <Gold.Protein.RotatedTorsions>
[ 5077 5068 5067 5065 ] final -153.53 input  179.94 | X-H torsion
[ 5157 5152 5151 5148 ] final  141.13 input -179.92 | X-H torsion
[ 5185 5176 5175 5173 ] final  129.85 input -179.99 | X-H torsion
[ 5712 5703 5702 5700 ] final  -25.13 input  180.00 | X-H torsion
[ 8036 8031 8030 8027 ] final    6.53 input -179.94 | X-H torsion
[ 2749 2745 2743 2740 ] final  112.73 input  -60.05 | X-H torsion
[ 1366 1361 1360 1357 ] final -107.40 input  -60.09 | X-H torsion
[ 2556 2551 2550 2547 ] final -104.30 input   59.97 | X-H torsion

> <Gold.Protein.ActiveResidues>
 PRO86   VAL89   HIS90   LEU93   THR94   ILE112  MET113  TYR115  VAL116  LEU117 
 THR118  SER119  ARG120  SER121  LEU123  ILE124  GLN192  SER194  PHE198  PHE201 
 ALA202  GLN203  PHE205  THR206  PHE209  PHE210  VAL228  ILE341  ILE343  VAL344 
 ILE345  GLU346  ASP347  TYR348  VAL349  GLN350  HIS351  LEU352  SER353  GLY354 
 TYR355  PHE357  LEU359  LYS360  GLU380  PHE381  ASN382  THR383  LEU384  TYR385 
 HIS386  TRP387  LEU390  VAL434  LEU507  ARG513  ALA516  ILE517  PHE518  GLY519 
 GLU520  THR521  MET522  VAL523  GLU524  VAL525  GLY526  ALA527  PRO528  PHE529 
 SER530  LEU531  LYS532  GLY533  LEU534  MET535  COH609 

> <Gold.Protein.RotatedAtoms>
   18.3720    7.4237    3.3867 H   0  0  0  0  0  0  0  0  0  0  0  0  # atno 1366 bound_to 1361
    4.5305   -8.7622    7.5364 H   0  0  0  0  0  0  0  0  0  0  0  0  # atno 2556 bound_to 2551
   -3.5113   -0.0051   -0.1979 H   0  0  0  0  0  0  0  0  0  0  0  0  # atno 2749 bound_to 2745
    2.1286   -1.8748    3.7376 H   0  0  0  0  0  0  0  0  0  0  0  0  # atno 5077 bound_to 5068
   12.8116   -1.6922    9.1789 H   0  0  0  0  0  0  0  0  0  0  0  0  # atno 5157 bound_to 5152
   15.1024   -0.0368    4.8746 H   0  0  0  0  0  0  0  0  0  0  0  0  # atno 5185 bound_to 5176
    1.6411   -0.6865    2.8409 H   0  0  0  0  0  0  0  0  0  0  0  0  # atno 5712 bound_to 5703
    5.1731    5.1758    3.3315 H   0  0  0  0  0  0  0  0  0  0  0  0  # atno 8036 bound_to 8031
    0.6926   -1.4659    3.9170 LP  0  0  0  0  0  0  0  0  0  0  0  0  # atno 8267 bound_to 5068
    1.2429   -2.9576    4.2895 LP  0  0  0  0  0  0  0  0  0  0  0  0  # atno 8268 bound_to 5068
   12.1943   -3.0624    9.2592 LP  0  0  0  0  0  0  0  0  0  0  0  0  # atno 8279 bound_to 5152
   11.3164   -1.6885    9.3503 LP  0  0  0  0  0  0  0  0  0  0  0  0  # atno 8280 bound_to 5152
   15.9463   -1.2481    4.5934 LP  0  0  0  0  0  0  0  0  0  0  0  0  # atno 8281 bound_to 5176
   16.5749    0.1759    5.0869 LP  0  0  0  0  0  0  0  0  0  0  0  0  # atno 8282 bound_to 5176
    2.3072    0.6208    2.5156 LP  0  0  0  0  0  0  0  0  0  0  0  0  # atno 8283 bound_to 5703
    3.0947   -0.8092    2.4796 LP  0  0  0  0  0  0  0  0  0  0  0  0  # atno 8284 bound_to 5703
    6.3891    4.4292    3.8046 LP  0  0  0  0  0  0  0  0  0  0  0  0  # atno 8309 bound_to 8031
    5.0160    3.6807    3.3346 LP  0  0  0  0  0  0  0  0  0  0  0  0  # atno 8310 bound_to 8031
   -4.2103    0.1772    1.1217 LP  0  0  0  0  0  0  0  0  0  0  0  0  # atno 8323 bound_to 2745
   -2.7954   -0.6240    0.9717 LP  0  0  0  0  0  0  0  0  0  0  0  0  # atno 8324 bound_to 2745
   18.7092    6.4714    2.2717 LP  0  0  0  0  0  0  0  0  0  0  0  0  # atno 8335 bound_to 1361
   17.5112    7.5756    2.1620 LP  0  0  0  0  0  0  0  0  0  0  0  0  # atno 8336 bound_to 1361
    4.8720   -9.7759    6.4782 LP  0  0  0  0  0  0  0  0  0  0  0  0  # atno 8342 bound_to 2551
    5.2386   -9.9841    8.0558 LP  0  0  0  0  0  0  0  0  0  0  0  0  # atno 8343 bound_to 2551

