
126|LMW3_p|sdf|126|dock1
  -GOLD-   6 922 5183D 1   1.00000     0.00000

 83 87  0  0  0  0  0  0  0  0  1 V2000
   17.4831    1.0665    1.1056 O   0  0  0  0  0  0  0  0  0  0  0  0
   18.1660    0.1838    1.9984 C   0  0  0  0  0  0  0  0  0  0  0  0
   17.4749    0.2362    3.3835 C   0  0  2  0  0  0  0  0  0  0  0  0
   19.6330    0.6264    2.0851 C   0  0  0  0  0  0  0  0  0  0  0  0
   18.1043   -1.2298    1.4040 C   0  0  0  0  0  0  0  0  0  0  0  0
   15.9250    0.2432    3.3183 C   0  0  1  0  0  0  0  0  0  0  0  0
   17.8327    1.4893    4.2050 C   0  0  0  0  0  0  0  0  0  0  0  0
   15.4428   -0.8986    4.0282 O   0  0  0  0  0  0  0  0  0  0  0  0
   15.4650    1.5383    4.0149 C   0  0  2  0  0  0  0  0  0  0  0  0
   16.5884    1.7817    5.0272 C   0  0  0  0  0  0  0  0  0  0  0  0
   14.0670    1.5197    4.6651 C   0  0  2  0  0  0  0  0  0  0  0  0
   12.8367    1.1981    3.7694 C   0  0  2  0  0  0  0  0  0  0  0  0
   13.6908    2.8979    5.2806 C   0  0  0  0  0  0  0  0  0  0  0  0
   11.6510    1.6989    4.6655 C   0  0  1  0  0  0  0  0  0  0  0  0
   12.5891   -0.2835    3.4453 C   0  0  0  0  0  0  0  0  0  0  0  0
   12.9537    1.9804    2.4195 C   0  0  0  0  0  0  0  0  0  0  0  0
   12.1728    3.0863    5.0896 C   0  0  0  0  0  0  0  0  0  0  0  0
   10.3338    1.5955    3.8962 C   0  0  0  0  0  0  0  0  0  0  0  0
   11.4271    0.8855    5.9810 C   0  0  0  0  0  0  0  0  0  0  0  0
   11.1773   -0.5011    2.9403 C   0  0  0  0  0  0  0  0  0  0  0  0
   10.1437    0.3632    3.0973 C   0  0  0  0  0  0  0  0  0  0  0  0
    9.3839    2.5436    3.9667 C   0  0  0  0  0  0  0  0  0  0  0  0
    8.7617    0.1522    2.3969 C   0  0  1  0  0  0  0  0  0  0  0  0
    8.0183    2.4085    3.3712 C   0  0  0  0  0  0  0  0  0  0  0  0
    8.3448   -1.3571    2.3301 C   0  0  1  0  0  0  0  0  0  0  0  0
    7.6374    0.9281    3.1808 C   0  0  1  0  0  0  0  0  0  0  0  0
    8.9853    0.6774    0.9549 C   0  0  0  0  0  0  0  0  0  0  0  0
    8.3458   -1.9768    3.6218 O   0  0  0  0  0  0  0  0  0  0  0  0
    6.9415   -1.5623    1.7579 C   0  0  0  0  0  0  0  0  0  0  0  0
    6.1479    0.7165    2.6932 C   0  0  1  0  0  0  0  0  0  0  0  0
    5.8742   -0.8113    2.5588 C   0  0  1  0  0  0  0  0  0  0  0  0
    5.1406    1.2846    3.7449 C   0  0  0  0  0  0  0  0  0  0  0  0
    5.8018    1.4503    1.3758 C   0  0  0  0  0  0  0  0  0  0  0  0
    4.5917   -1.0448    1.9599 O   0  0  0  0  0  0  0  0  0  0  0  0
    4.9708    2.6893    3.6119 O   0  0  0  0  0  0  0  0  0  0  0  0
   17.9656    1.1135    0.2654 H   0  0  0  0  0  0  0  0  0  0  0  0
   17.8407   -0.6582    3.8432 H   0  0  0  0  0  0  0  0  0  0  0  0
   20.1232    0.4200    1.1566 H   0  0  0  0  0  0  0  0  0  0  0  0
   20.1210    0.0914    2.8728 H   0  0  0  0  0  0  0  0  0  0  0  0
   19.6775    1.6763    2.2863 H   0  0  0  0  0  0  0  0  0  0  0  0
   18.5412   -1.2255    0.4273 H   0  0  0  0  0  0  0  0  0  0  0  0
   17.0838   -1.5443    1.3367 H   0  0  0  0  0  0  0  0  0  0  0  0
   18.6449   -1.9054    2.0336 H   0  0  0  0  0  0  0  0  0  0  0  0
   15.5573    0.2062    2.3141 H   0  0  0  0  0  0  0  0  0  0  0  0
   18.0596    2.3116    3.5590 H   0  0  0  0  0  0  0  0  0  0  0  0
   18.6961    1.3376    4.8185 H   0  0  0  0  0  0  0  0  0  0  0  0
   15.6493   -1.7025    3.5261 H   0  0  0  0  0  0  0  0  0  0  0  0
   15.3233    2.3231    3.3016 H   0  0  0  0  0  0  0  0  0  0  0  0
   16.5832    2.7930    5.3764 H   0  0  0  0  0  0  0  0  0  0  0  0
   16.5072    1.1827    5.9102 H   0  0  0  0  0  0  0  0  0  0  0  0
   14.2129    0.7203    5.3612 H   0  0  0  0  0  0  0  0  0  0  0  0
   14.2227    3.6799    4.7802 H   0  0  0  0  0  0  0  0  0  0  0  0
   13.9492    2.9325    6.3184 H   0  0  0  0  0  0  0  0  0  0  0  0
   12.7372   -0.8648    4.3314 H   0  0  0  0  0  0  0  0  0  0  0  0
   13.2745   -0.5840    2.6805 H   0  0  0  0  0  0  0  0  0  0  0  0
   11.9817    2.0911    1.9860 H   0  0  0  0  0  0  0  0  0  0  0  0
   13.5847    1.4382    1.7466 H   0  0  0  0  0  0  0  0  0  0  0  0
   13.3748    2.9468    2.6027 H   0  0  0  0  0  0  0  0  0  0  0  0
   11.9764    3.8114    4.3276 H   0  0  0  0  0  0  0  0  0  0  0  0
   11.6958    3.4413    5.9793 H   0  0  0  0  0  0  0  0  0  0  0  0
   12.3593    0.7739    6.4944 H   0  0  0  0  0  0  0  0  0  0  0  0
   11.0344   -0.0804    5.7407 H   0  0  0  0  0  0  0  0  0  0  0  0
   10.7343    1.4060    6.6088 H   0  0  0  0  0  0  0  0  0  0  0  0
   10.9861   -1.3802    2.4348 H   0  0  0  0  0  0  0  0  0  0  0  0
    9.6107    3.4196    4.4628 H   0  0  0  0  0  0  0  0  0  0  0  0
    8.0025    2.8981    2.4198 H   0  0  0  0  0  0  0  0  0  0  0  0
    7.3120    2.8570    4.0382 H   0  0  0  0  0  0  0  0  0  0  0  0
    9.0768   -1.8027    1.6893 H   0  0  0  0  0  0  0  0  0  0  0  0
    7.6104    0.4573    4.1413 H   0  0  0  0  0  0  0  0  0  0  0  0
   10.0148    0.5603    0.6883 H   0  0  0  0  0  0  0  0  0  0  0  0
    8.7201    1.7130    0.9073 H   0  0  0  0  0  0  0  0  0  0  0  0
    8.3750    0.1214    0.2741 H   0  0  0  0  0  0  0  0  0  0  0  0
    9.2274   -1.8964    4.0182 H   0  0  0  0  0  0  0  0  0  0  0  0
    6.7124   -2.6074    1.7740 H   0  0  0  0  0  0  0  0  0  0  0  0
    6.9345   -1.1772    0.7597 H   0  0  0  0  0  0  0  0  0  0  0  0
    5.8992   -1.1941    3.5577 H   0  0  0  0  0  0  0  0  0  0  0  0
    5.5092    1.0722    4.7267 H   0  0  0  0  0  0  0  0  0  0  0  0
    4.1914    0.8190    3.5799 H   0  0  0  0  0  0  0  0  0  0  0  0
    6.1566    2.4585    1.4253 H   0  0  0  0  0  0  0  0  0  0  0  0
    4.7409    1.4519    1.2366 H   0  0  0  0  0  0  0  0  0  0  0  0
    6.2686    0.9478    0.5544 H   0  0  0  0  0  0  0  0  0  0  0  0
    4.6354   -0.8411    1.0125 H   0  0  0  0  0  0  0  0  0  0  0  0
    4.3923    3.0136    4.3197 H   0  0  0  0  0  0  0  0  0  0  0  0
  1  2  1  0  0  0  0
  1 36  1  0  0  0  0
  2  3  1  0  0  0  0
  2  4  1  0  0  0  0
  2  5  1  0  0  0  0
  3  6  1  0  0  0  0
  3  7  1  0  0  0  0
  3 37  1  0  0  0  0
  4 38  1  0  0  0  0
  4 39  1  0  0  0  0
  4 40  1  0  0  0  0
  5 41  1  0  0  0  0
  5 42  1  0  0  0  0
  5 43  1  0  0  0  0
  6  8  1  0  0  0  0
  6  9  1  0  0  0  0
  6 44  1  0  0  0  0
  7 10  1  0  0  0  0
  7 45  1  0  0  0  0
  7 46  1  0  0  0  0
  8 47  1  0  0  0  0
  9 11  1  0  0  0  0
  9 10  1  0  0  0  0
  9 48  1  0  0  0  0
 10 49  1  0  0  0  0
 10 50  1  0  0  0  0
 11 12  1  0  0  0  0
 11 13  1  0  0  0  0
 11 51  1  0  0  0  0
 12 14  1  0  0  0  0
 12 15  1  0  0  0  0
 12 16  1  0  0  0  0
 13 17  1  0  0  0  0
 13 52  1  0  0  0  0
 13 53  1  0  0  0  0
 14 18  1  0  0  0  0
 14 19  1  0  0  0  0
 14 17  1  0  0  0  0
 15 20  1  0  0  0  0
 15 54  1  0  0  0  0
 15 55  1  0  0  0  0
 16 56  1  0  0  0  0
 16 57  1  0  0  0  0
 16 58  1  0  0  0  0
 17 59  1  0  0  0  0
 17 60  1  0  0  0  0
 18 21  1  0  0  0  0
 18 22  2  0  0  0  0
 19 61  1  0  0  0  0
 19 62  1  0  0  0  0
 19 63  1  0  0  0  0
 20 21  2  0  0  0  0
 20 64  1  0  0  0  0
 21 23  1  0  0  0  0
 22 24  1  0  0  0  0
 22 65  1  0  0  0  0
 23 25  1  0  0  0  0
 23 26  1  0  0  0  0
 23 27  1  0  0  0  0
 24 26  1  0  0  0  0
 24 66  1  0  0  0  0
 24 67  1  0  0  0  0
 25 28  1  0  0  0  0
 25 29  1  0  0  0  0
 25 68  1  0  0  0  0
 26 30  1  0  0  0  0
 26 69  1  0  0  0  0
 27 70  1  0  0  0  0
 27 71  1  0  0  0  0
 27 72  1  0  0  0  0
 28 73  1  0  0  0  0
 29 31  1  0  0  0  0
 29 74  1  0  0  0  0
 29 75  1  0  0  0  0
 30 32  1  0  0  0  0
 30 33  1  0  0  0  0
 30 31  1  0  0  0  0
 31 34  1  0  0  0  0
 31 76  1  0  0  0  0
 32 35  1  0  0  0  0
 32 77  1  0  0  0  0
 32 78  1  0  0  0  0
 33 79  1  0  0  0  0
 33 80  1  0  0  0  0
 33 81  1  0  0  0  0
 34 82  1  0  0  0  0
 35 83  1  0  0  0  0
M  END
>  <Code-name>
126

>  <Compound>
Inonotusol C

>  <Specie>
Inonotus obliquus

>  <Reference>
GrÃ¼ndemann (2020)

>  <Organism>
Antitumoral Activity

>  <Smiles>
CC(C)([C@@H](CC[C@@H]1[C@@H](CC2)[C@]3(C)[C@]2(C)C2=CC[C@@H]([C@](C)(CO)[C@H](C[C@@H]4O)O)[C@@]4(C)C2=CC3)[C@H]1O)O

>  <MMFF94 Energy>
144.61

>  <Total Molweight>
488.706

>  <Molweight>
488.706

>  <Monoisotopic Mass>
488.350175

>  <cLogP>
3.7554

>  <cLogS>
-4.71

>  <H-Acceptors>
5

>  <H-Donors>
5

>  <Total Surface Area>
350.36

>  <Relative PSA>
0.18695

>  <Polar Surface Area>
101.15

>  <Druglikeness>
-4.3183

>  <Mutagenic>
none

>  <Tumorigenic>
none

>  <Reproductive Effective>
none

>  <Irritant>
none

>  <Nasty Functions>


>  <Shape Index>
0.42857

>  <Molecular Flexibility>
0.20885

>  <Molecular Complexity>
1.0395

>  <Fragments>
1

>  <Non-H Atoms>
35

>  <Non-C/H Atoms>
5

>  <Metal-Atoms>
0

>  <Electronegative Atoms>
5

>  <Stereo Centers>
11

>  <Rotatable Bonds>
3

>  <Rings Closures>
5

>  <Small Rings>
5

>  <Aromatic Rings>
0

>  <Aromatic Atoms>
0

>  <sp3-Atoms>
31

>  <Symmetric atoms>
1

>  <Amides>
0

>  <Amines>
0

>  <Alkyl-Amines>
0

>  <Aromatic Amines>
0

>  <Aromatic Nitrogens>
0

>  <Basic Nitrogens>
0

>  <Acidic Oxygens>
0

>  <Stereo Configuration>
this enantiomer

> <Gold.Version>
5.8.1

> <Gold.Id.Protein>
ID_2|Prot_COX2_5IKQ_Alig|mol2

> <Gold.Goldscore.Fitness>
0.0000

> <Gold.Goldscore.Internal.Vdw>
-28.3528

> <Gold.Goldscore.Internal.Torsion>
-4.7124

> <Gold.Goldscore.External.Vdw>
-1151.1301

> <Gold.Goldscore.Internal.HBond>
0.0000

> <Gold.Goldscore.External.HBond>
0.1114

> <Gold.Goldscore.Internal.Correction>
-29.2063

> <Gold.Goldscore.Hbonds>
donor molecule, donor type, donor heavy atom, donor atom, acceptor molecule, acceptor atom, score
      P1  H  1377  1390       L1     1  0.12
      P1  H  5068  5077       L1    34  0.25
      P1  H  8031  8036       L1    35  0.38

> <Gold.Goldscore.Internal.Vdw.Weighted>
-28.3528

> <Gold.Goldscore.Internal.Torsion.Weighted>
-4.7124

> <Gold.Goldscore.External.Vdw.Weighted>
-1582.8039

> <Gold.Goldscore.Internal.HBond.Weighted>
0.0000

> <Gold.Goldscore.External.HBond.Weighted>
0.1114

> <Gold.Goldscore.Internal.Correction.Weighted>
-29.2063

> <Gold.Protein.RotatedTorsions>
[ 5077 5068 5067 5065 ] final -168.81 input  179.94 | X-H torsion
[ 5157 5152 5151 5148 ] final  143.52 input -179.92 | X-H torsion
[ 5185 5176 5175 5173 ] final   11.26 input -179.99 | X-H torsion
[ 5712 5703 5702 5700 ] final   -0.00 input  180.00 | X-H torsion
[ 8036 8031 8030 8027 ] final  139.28 input -179.94 | X-H torsion
[ 2749 2745 2743 2740 ] final   31.36 input  -60.05 | X-H torsion
[ 1366 1361 1360 1357 ] final  160.69 input  -60.09 | X-H torsion
[ 2556 2551 2550 2547 ] final  144.34 input   59.97 | X-H torsion

> <Gold.Protein.ActiveResidues>
 PRO86   VAL89   HIS90   LEU93   THR94   ILE112  MET113  TYR115  VAL116  LEU117 
 THR118  SER119  ARG120  SER121  LEU123  ILE124  GLN192  SER194  PHE198  PHE201 
 ALA202  GLN203  PHE205  THR206  PHE209  PHE210  VAL228  ILE341  ILE343  VAL344 
 ILE345  GLU346  ASP347  TYR348  VAL349  GLN350  HIS351  LEU352  SER353  GLY354 
 TYR355  PHE357  LEU359  LYS360  GLU380  PHE381  ASN382  THR383  LEU384  TYR385 
 HIS386  TRP387  LEU390  VAL434  LEU507  ARG513  ALA516  ILE517  PHE518  GLY519 
 GLU520  THR521  MET522  VAL523  GLU524  VAL525  GLY526  ALA527  PRO528  PHE529 
 SER530  LEU531  LYS532  GLY533  LEU534  MET535  COH609 

> <Gold.Protein.RotatedAtoms>
   18.8013    6.6505    2.6734 H   0  0  0  0  0  0  0  0  0  0  0  0  # atno 1366 bound_to 1361
    4.7791   -9.6384    6.6011 H   0  0  0  0  0  0  0  0  0  0  0  0  # atno 2556 bound_to 2551
   -4.1720    0.2818    0.5381 H   0  0  0  0  0  0  0  0  0  0  0  0  # atno 2749 bound_to 2745
    2.0330   -1.6919    3.6991 H   0  0  0  0  0  0  0  0  0  0  0  0  # atno 5077 bound_to 5068
   12.7934   -1.6649    9.1808 H   0  0  0  0  0  0  0  0  0  0  0  0  # atno 5157 bound_to 5152
   15.9011   -1.1125    4.6722 H   0  0  0  0  0  0  0  0  0  0  0  0  # atno 5185 bound_to 5176
    1.8644   -0.9449    2.8107 H   0  0  0  0  0  0  0  0  0  0  0  0  # atno 5712 bound_to 5703
    5.2568    3.7340    3.3712 H   0  0  0  0  0  0  0  0  0  0  0  0  # atno 8036 bound_to 8031
    0.5635   -1.6568    4.0161 LP  0  0  0  0  0  0  0  0  0  0  0  0  # atno 8267 bound_to 5068
    1.4864   -2.9858    4.2363 LP  0  0  0  0  0  0  0  0  0  0  0  0  # atno 8268 bound_to 5068
   12.2333   -3.0598    9.2559 LP  0  0  0  0  0  0  0  0  0  0  0  0  # atno 8279 bound_to 5152
   11.2992   -1.7238    9.3513 LP  0  0  0  0  0  0  0  0  0  0  0  0  # atno 8280 bound_to 5152
   16.5868    0.1599    5.0839 LP  0  0  0  0  0  0  0  0  0  0  0  0  # atno 8281 bound_to 5176
   14.9754    0.0596    4.8395 LP  0  0  0  0  0  0  0  0  0  0  0  0  # atno 8282 bound_to 5176
    1.9224    0.5469    2.6380 LP  0  0  0  0  0  0  0  0  0  0  0  0  # atno 8283 bound_to 5703
    3.2115   -0.4252    2.3934 LP  0  0  0  0  0  0  0  0  0  0  0  0  # atno 8284 bound_to 5703
    4.9279    5.1987    3.2928 LP  0  0  0  0  0  0  0  0  0  0  0  0  # atno 8309 bound_to 8031
    6.3768    4.6410    3.7987 LP  0  0  0  0  0  0  0  0  0  0  0  0  # atno 8310 bound_to 8031
   -3.1942   -0.4508    1.4159 LP  0  0  0  0  0  0  0  0  0  0  0  0  # atno 8323 bound_to 2745
   -3.0202   -0.3396   -0.2039 LP  0  0  0  0  0  0  0  0  0  0  0  0  # atno 8324 bound_to 2745
   17.6834    7.2656    1.8759 LP  0  0  0  0  0  0  0  0  0  0  0  0  # atno 8335 bound_to 1361
   18.0235    7.7064    3.4110 LP  0  0  0  0  0  0  0  0  0  0  0  0  # atno 8336 bound_to 1361
    5.2652  -10.0779    7.9557 LP  0  0  0  0  0  0  0  0  0  0  0  0  # atno 8342 bound_to 2551
    4.5479   -8.6338    7.6973 LP  0  0  0  0  0  0  0  0  0  0  0  0  # atno 8343 bound_to 2551

