
127|LMW3_p|sdf|127|dock8
  -GOLD-   6 922 5243D 1   1.00000     0.00000

 83 87  0  0  0  0  0  0  0  0  1 V2000
    6.2224   -0.6840    2.9641 O   0  0  0  0  0  0  0  0  0  0  0  0
    6.8397   -0.2674    1.7381 C   0  0  0  0  0  0  0  0  0  0  0  0
    8.3722   -0.3609    1.9343 C   0  0  1  0  0  0  0  0  0  0  0  0
    6.2559   -1.1243    0.6081 C   0  0  0  0  0  0  0  0  0  0  0  0
    6.4407    1.1966    1.4910 C   0  0  0  0  0  0  0  0  0  0  0  0
    9.0220    0.6340    2.9065 C   0  0  1  0  0  0  0  0  0  0  0  0
    8.9001   -1.7083    2.4290 C   0  0  0  0  0  0  0  0  0  0  0  0
    8.3797    0.6372    4.1713 O   0  0  0  0  0  0  0  0  0  0  0  0
   10.4703    0.1091    3.0274 C   0  0  2  0  0  0  0  0  0  0  0  0
   10.3162   -1.4257    2.9367 C   0  0  0  0  0  0  0  0  0  0  0  0
   11.2353    0.5713    4.2893 C   0  0  1  0  0  0  0  0  0  0  0  0
   12.8018    0.5551    4.2530 C   0  0  2  0  0  0  0  0  0  0  0  0
   10.8864    2.0197    4.7398 C   0  0  0  0  0  0  0  0  0  0  0  0
   13.2011    2.0547    4.0455 C   0  0  1  0  0  0  0  0  0  0  0  0
   13.5340   -0.2766    3.1882 C   0  0  0  0  0  0  0  0  0  0  0  0
   13.2378   -0.0024    5.6576 C   0  0  0  0  0  0  0  0  0  0  0  0
   12.2121    2.7521    4.9949 C   0  0  0  0  0  0  0  0  0  0  0  0
   14.7047    2.2265    4.2697 C   0  0  0  0  0  0  0  0  0  0  0  0
   12.9344    2.6193    2.6149 C   0  0  0  0  0  0  0  0  0  0  0  0
   15.0116    0.0626    3.1534 C   0  0  0  0  0  0  0  0  0  0  0  0
   15.5723    1.1825    3.6753 C   0  0  0  0  0  0  0  0  0  0  0  0
   15.2184    3.2712    4.9409 C   0  0  0  0  0  0  0  0  0  0  0  0
   17.1210    1.3838    3.7555 C   0  0  1  0  0  0  0  0  0  0  0  0
   16.6824    3.5571    5.0471 C   0  0  0  0  0  0  0  0  0  0  0  0
   17.8627    0.8332    2.4912 C   0  0  1  0  0  0  0  0  0  0  0  0
   17.4541    2.9190    3.8757 C   0  0  1  0  0  0  0  0  0  0  0  0
   17.5499    0.5566    4.9946 C   0  0  0  0  0  0  0  0  0  0  0  0
   17.3458    1.4044    1.2838 O   0  0  0  0  0  0  0  0  0  0  0  0
   19.3617    1.1342    2.5054 C   0  0  0  0  0  0  0  0  0  0  0  0
   18.9791    3.3320    3.8227 C   0  0  1  0  0  0  0  0  0  0  0  0
   19.6540    2.6340    2.6028 C   0  0  1  0  0  0  0  0  0  0  0  0
   19.1273    4.8782    3.6269 C   0  0  0  0  0  0  0  0  0  0  0  0
   19.7563    3.0232    5.1252 C   0  0  0  0  0  0  0  0  0  0  0  0
   21.0743    2.8253    2.6280 O   0  0  0  0  0  0  0  0  0  0  0  0
   18.1342    5.4361    2.7760 O   0  0  0  0  0  0  0  0  0  0  0  0
    6.2931    0.0274    3.6197 H   0  0  0  0  0  0  0  0  0  0  0  0
    8.6429   -0.1501    0.9208 H   0  0  0  0  0  0  0  0  0  0  0  0
    6.6127   -0.7635   -0.3339 H   0  0  0  0  0  0  0  0  0  0  0  0
    5.1878   -1.0654    0.6311 H   0  0  0  0  0  0  0  0  0  0  0  0
    6.5600   -2.1418    0.7386 H   0  0  0  0  0  0  0  0  0  0  0  0
    6.9419    1.5604    0.6184 H   0  0  0  0  0  0  0  0  0  0  0  0
    6.7202    1.7900    2.3363 H   0  0  0  0  0  0  0  0  0  0  0  0
    5.3824    1.2583    1.3462 H   0  0  0  0  0  0  0  0  0  0  0  0
    8.9592    1.6448    2.5612 H   0  0  0  0  0  0  0  0  0  0  0  0
    8.9236   -2.4182    1.6287 H   0  0  0  0  0  0  0  0  0  0  0  0
    8.2778   -2.1241    3.1937 H   0  0  0  0  0  0  0  0  0  0  0  0
    8.4330   -0.2485    4.5631 H   0  0  0  0  0  0  0  0  0  0  0  0
   11.0885    0.5133    2.2533 H   0  0  0  0  0  0  0  0  0  0  0  0
   11.0370   -1.8270    2.2553 H   0  0  0  0  0  0  0  0  0  0  0  0
   10.4755   -1.8808    3.8919 H   0  0  0  0  0  0  0  0  0  0  0  0
   10.8922   -0.1877    4.9609 H   0  0  0  0  0  0  0  0  0  0  0  0
   10.3042    1.9935    5.6372 H   0  0  0  0  0  0  0  0  0  0  0  0
   10.3152    2.5225    3.9876 H   0  0  0  0  0  0  0  0  0  0  0  0
   13.1056   -0.0723    2.2292 H   0  0  0  0  0  0  0  0  0  0  0  0
   13.4283   -1.3128    3.4335 H   0  0  0  0  0  0  0  0  0  0  0  0
   13.3750   -1.0616    5.5939 H   0  0  0  0  0  0  0  0  0  0  0  0
   12.4788    0.2162    6.3794 H   0  0  0  0  0  0  0  0  0  0  0  0
   14.1563    0.4589    5.9550 H   0  0  0  0  0  0  0  0  0  0  0  0
   12.5191    2.6422    6.0140 H   0  0  0  0  0  0  0  0  0  0  0  0
   12.1440    3.8060    4.8225 H   0  0  0  0  0  0  0  0  0  0  0  0
   11.8913    2.5412    2.3894 H   0  0  0  0  0  0  0  0  0  0  0  0
   13.4972    2.0574    1.8990 H   0  0  0  0  0  0  0  0  0  0  0  0
   13.2318    3.6464    2.5756 H   0  0  0  0  0  0  0  0  0  0  0  0
   15.6423   -0.6137    2.6953 H   0  0  0  0  0  0  0  0  0  0  0  0
   14.5632    3.9148    5.4116 H   0  0  0  0  0  0  0  0  0  0  0  0
   17.0514    3.1575    5.9685 H   0  0  0  0  0  0  0  0  0  0  0  0
   16.8268    4.6167    5.0144 H   0  0  0  0  0  0  0  0  0  0  0  0
   17.7000   -0.2240    2.5206 H   0  0  0  0  0  0  0  0  0  0  0  0
   17.0982    3.3408    2.9590 H   0  0  0  0  0  0  0  0  0  0  0  0
   17.3155    1.1010    5.8854 H   0  0  0  0  0  0  0  0  0  0  0  0
   18.6036    0.3745    4.9546 H   0  0  0  0  0  0  0  0  0  0  0  0
   17.0266   -0.3767    4.9990 H   0  0  0  0  0  0  0  0  0  0  0  0
   17.7021    0.9238    0.5204 H   0  0  0  0  0  0  0  0  0  0  0  0
   19.7967    0.7570    1.6035 H   0  0  0  0  0  0  0  0  0  0  0  0
   19.7813    0.6628    3.3695 H   0  0  0  0  0  0  0  0  0  0  0  0
   19.2244    3.1002    1.7409 H   0  0  0  0  0  0  0  0  0  0  0  0
   20.0889    5.0759    3.2013 H   0  0  0  0  0  0  0  0  0  0  0  0
   19.0107    5.3316    4.5891 H   0  0  0  0  0  0  0  0  0  0  0  0
   20.7683    3.3557    5.0241 H   0  0  0  0  0  0  0  0  0  0  0  0
   19.7437    1.9687    5.3065 H   0  0  0  0  0  0  0  0  0  0  0  0
   19.2941    3.5317    5.9454 H   0  0  0  0  0  0  0  0  0  0  0  0
   21.4102    2.8735    1.7194 H   0  0  0  0  0  0  0  0  0  0  0  0
   18.3252    5.1965    1.8557 H   0  0  0  0  0  0  0  0  0  0  0  0
  1  2  1  0  0  0  0
  1 36  1  0  0  0  0
  2  3  1  0  0  0  0
  2  4  1  0  0  0  0
  2  5  1  0  0  0  0
  3  6  1  0  0  0  0
  3  7  1  0  0  0  0
  3 37  1  0  0  0  0
  4 38  1  0  0  0  0
  4 39  1  0  0  0  0
  4 40  1  0  0  0  0
  5 41  1  0  0  0  0
  5 42  1  0  0  0  0
  5 43  1  0  0  0  0
  6  8  1  0  0  0  0
  6  9  1  0  0  0  0
  6 44  1  0  0  0  0
  7 10  1  0  0  0  0
  7 45  1  0  0  0  0
  7 46  1  0  0  0  0
  8 47  1  0  0  0  0
  9 11  1  0  0  0  0
  9 10  1  0  0  0  0
  9 48  1  0  0  0  0
 10 49  1  0  0  0  0
 10 50  1  0  0  0  0
 11 12  1  0  0  0  0
 11 13  1  0  0  0  0
 11 51  1  0  0  0  0
 12 14  1  0  0  0  0
 12 15  1  0  0  0  0
 12 16  1  0  0  0  0
 13 17  1  0  0  0  0
 13 52  1  0  0  0  0
 13 53  1  0  0  0  0
 14 18  1  0  0  0  0
 14 19  1  0  0  0  0
 14 17  1  0  0  0  0
 15 20  1  0  0  0  0
 15 54  1  0  0  0  0
 15 55  1  0  0  0  0
 16 56  1  0  0  0  0
 16 57  1  0  0  0  0
 16 58  1  0  0  0  0
 17 59  1  0  0  0  0
 17 60  1  0  0  0  0
 18 21  1  0  0  0  0
 18 22  2  0  0  0  0
 19 61  1  0  0  0  0
 19 62  1  0  0  0  0
 19 63  1  0  0  0  0
 20 21  2  0  0  0  0
 20 64  1  0  0  0  0
 21 23  1  0  0  0  0
 22 24  1  0  0  0  0
 22 65  1  0  0  0  0
 23 25  1  0  0  0  0
 23 26  1  0  0  0  0
 23 27  1  0  0  0  0
 24 26  1  0  0  0  0
 24 66  1  0  0  0  0
 24 67  1  0  0  0  0
 25 28  1  0  0  0  0
 25 29  1  0  0  0  0
 25 68  1  0  0  0  0
 26 30  1  0  0  0  0
 26 69  1  0  0  0  0
 27 70  1  0  0  0  0
 27 71  1  0  0  0  0
 27 72  1  0  0  0  0
 28 73  1  0  0  0  0
 29 31  1  0  0  0  0
 29 74  1  0  0  0  0
 29 75  1  0  0  0  0
 30 32  1  0  0  0  0
 30 33  1  0  0  0  0
 30 31  1  0  0  0  0
 31 34  1  0  0  0  0
 31 76  1  0  0  0  0
 32 35  1  0  0  0  0
 32 77  1  0  0  0  0
 32 78  1  0  0  0  0
 33 79  1  0  0  0  0
 33 80  1  0  0  0  0
 33 81  1  0  0  0  0
 34 82  1  0  0  0  0
 35 83  1  0  0  0  0
M  END
>  <Code-name>
127

>  <Compound>
Inonotusol D

>  <Specie>
Inonotus obliquus

>  <Reference>
GrÃ¼ndemann (2020)

>  <Organism>
Antitumoral Activity

>  <Smiles>
CC(C)([C@H](CC[C@@H]1[C@H](CC2)[C@]3(C)[C@]2(C)C2=CC[C@@H]([C@](C)(CO)[C@H](C[C@@H]4O)O)[C@@]4(C)C2=CC3)[C@H]1O)O

>  <MMFF94 Energy>
153.1

>  <Total Molweight>
488.706

>  <Molweight>
488.706

>  <Monoisotopic Mass>
488.350175

>  <cLogP>
3.7554

>  <cLogS>
-4.71

>  <H-Acceptors>
5

>  <H-Donors>
5

>  <Total Surface Area>
350.36

>  <Relative PSA>
0.18695

>  <Polar Surface Area>
101.15

>  <Druglikeness>
-4.3183

>  <Mutagenic>
none

>  <Tumorigenic>
none

>  <Reproductive Effective>
none

>  <Irritant>
none

>  <Nasty Functions>


>  <Shape Index>
0.42857

>  <Molecular Flexibility>
0.20496

>  <Molecular Complexity>
1.0395

>  <Fragments>
1

>  <Non-H Atoms>
35

>  <Non-C/H Atoms>
5

>  <Metal-Atoms>
0

>  <Electronegative Atoms>
5

>  <Stereo Centers>
11

>  <Rotatable Bonds>
3

>  <Rings Closures>
5

>  <Small Rings>
5

>  <Aromatic Rings>
0

>  <Aromatic Atoms>
0

>  <sp3-Atoms>
31

>  <Symmetric atoms>
1

>  <Amides>
0

>  <Amines>
0

>  <Alkyl-Amines>
0

>  <Aromatic Amines>
0

>  <Aromatic Nitrogens>
0

>  <Basic Nitrogens>
0

>  <Acidic Oxygens>
0

>  <Stereo Configuration>
this enantiomer

> <Gold.Version>
5.8.1

> <Gold.Id.Protein>
ID_2|Prot_COX2_5IKQ_Alig|mol2

> <Gold.Goldscore.Fitness>
-104.6888

> <Gold.Goldscore.Internal.Vdw>
-39.1062

> <Gold.Goldscore.Internal.Torsion>
-7.4095

> <Gold.Goldscore.External.Vdw>
-66.1333

> <Gold.Goldscore.Internal.HBond>
0.0000

> <Gold.Goldscore.External.HBond>
0.7151

> <Gold.Goldscore.Internal.Correction>
-32.0451

> <Gold.Goldscore.Hbonds>
donor molecule, donor type, donor heavy atom, donor atom, acceptor molecule, acceptor atom, score
      P1  H  1377  1390       L1    28  0.01
      P1  H  5703  5712       L1     1  0.29
      L1  H    28    73       P1  7952  0.01

> <Gold.Goldscore.Internal.Vdw.Weighted>
-39.1062

> <Gold.Goldscore.Internal.Torsion.Weighted>
-7.4095

> <Gold.Goldscore.External.Vdw.Weighted>
-90.9332

> <Gold.Goldscore.Internal.HBond.Weighted>
0.0000

> <Gold.Goldscore.External.HBond.Weighted>
0.7151

> <Gold.Goldscore.Internal.Correction.Weighted>
-32.0451

> <Gold.Protein.RotatedTorsions>
[ 5077 5068 5067 5065 ] final   33.41 input  179.94 | X-H torsion
[ 5157 5152 5151 5148 ] final   96.02 input -179.92 | X-H torsion
[ 5185 5176 5175 5173 ] final    8.08 input -179.99 | X-H torsion
[ 5712 5703 5702 5700 ] final  118.95 input  180.00 | X-H torsion
[ 8036 8031 8030 8027 ] final   32.96 input -179.94 | X-H torsion
[ 2749 2745 2743 2740 ] final  138.51 input  -60.05 | X-H torsion
[ 1366 1361 1360 1357 ] final  -57.07 input  -60.09 | X-H torsion
[ 2556 2551 2550 2547 ] final  -53.64 input   59.97 | X-H torsion

> <Gold.Protein.ActiveResidues>
 PRO86   VAL89   HIS90   LEU93   THR94   ILE112  MET113  TYR115  VAL116  LEU117 
 THR118  SER119  ARG120  SER121  LEU123  ILE124  GLN192  SER194  PHE198  PHE201 
 ALA202  GLN203  PHE205  THR206  PHE209  PHE210  VAL228  ILE341  ILE343  VAL344 
 ILE345  GLU346  ASP347  TYR348  VAL349  GLN350  HIS351  LEU352  SER353  GLY354 
 TYR355  PHE357  LEU359  LYS360  GLU380  PHE381  ASN382  THR383  LEU384  TYR385 
 HIS386  TRP387  LEU390  VAL434  LEU507  ARG513  ALA516  ILE517  PHE518  GLY519 
 GLU520  THR521  MET522  VAL523  GLU524  VAL525  GLY526  ALA527  PRO528  PHE529 
 SER530  LEU531  LYS532  GLY533  LEU534  MET535  COH609 

> <Gold.Protein.RotatedAtoms>
   17.8731    7.7514    3.0778 H   0  0  0  0  0  0  0  0  0  0  0  0  # atno 1366 bound_to 1361
    4.7788   -9.1004    8.0668 H   0  0  0  0  0  0  0  0  0  0  0  0  # atno 2556 bound_to 2551
   -3.2117   -0.1850   -0.1517 H   0  0  0  0  0  0  0  0  0  0  0  0  # atno 2749 bound_to 2745
    0.6632   -2.1895    4.2243 H   0  0  0  0  0  0  0  0  0  0  0  0  # atno 5077 bound_to 5068
   12.9176   -2.2893    9.1627 H   0  0  0  0  0  0  0  0  0  0  0  0  # atno 5157 bound_to 5152
   15.9440   -1.1087    4.6790 H   0  0  0  0  0  0  0  0  0  0  0  0  # atno 5185 bound_to 5176
    3.0488   -0.4279    2.3945 H   0  0  0  0  0  0  0  0  0  0  0  0  # atno 5712 bound_to 5703
    4.9135    4.9416    3.2433 H   0  0  0  0  0  0  0  0  0  0  0  0  # atno 8036 bound_to 8031
    2.0284   -2.7890    4.0286 LP  0  0  0  0  0  0  0  0  0  0  0  0  # atno 8267 bound_to 5068
    1.6619   -1.2578    3.5950 LP  0  0  0  0  0  0  0  0  0  0  0  0  # atno 8268 bound_to 5068
   11.5164   -2.8158    9.3197 LP  0  0  0  0  0  0  0  0  0  0  0  0  # atno 8279 bound_to 5152
   11.8676   -1.2210    9.3091 LP  0  0  0  0  0  0  0  0  0  0  0  0  # atno 8280 bound_to 5152
   16.5553    0.2009    5.0915 LP  0  0  0  0  0  0  0  0  0  0  0  0  # atno 8281 bound_to 5176
   14.9553    0.0139    4.8237 LP  0  0  0  0  0  0  0  0  0  0  0  0  # atno 8282 bound_to 5176
    1.7772   -1.0513    2.8974 LP  0  0  0  0  0  0  0  0  0  0  0  0  # atno 8283 bound_to 5703
    1.9351    0.5525    2.6335 LP  0  0  0  0  0  0  0  0  0  0  0  0  # atno 8284 bound_to 5703
    6.3164    4.8536    3.7762 LP  0  0  0  0  0  0  0  0  0  0  0  0  # atno 8309 bound_to 8031
    5.4002    3.5373    3.4688 LP  0  0  0  0  0  0  0  0  0  0  0  0  # atno 8310 bound_to 8031
   -4.3277    0.2960    0.7353 LP  0  0  0  0  0  0  0  0  0  0  0  0  # atno 8323 bound_to 2745
   -3.0367   -0.5273    1.3028 LP  0  0  0  0  0  0  0  0  0  0  0  0  # atno 8324 bound_to 2745
   18.9066    6.6590    3.0263 LP  0  0  0  0  0  0  0  0  0  0  0  0  # atno 8335 bound_to 1361
   17.9106    6.9961    1.7769 LP  0  0  0  0  0  0  0  0  0  0  0  0  # atno 8336 bound_to 1361
    4.5482   -9.0436    6.5809 LP  0  0  0  0  0  0  0  0  0  0  0  0  # atno 8342 bound_to 2551
    5.2654  -10.3118    7.3185 LP  0  0  0  0  0  0  0  0  0  0  0  0  # atno 8343 bound_to 2551

