
128|LMW3_p|sdf|128|dock7
  -GOLD-   6 922 5283D 1   1.00000     0.00000

 83 87  0  0  0  0  0  0  0  0  1 V2000
   15.3063    3.0485    6.2598 O   0  0  0  0  0  0  0  0  0  0  0  0
   15.8933    2.2338    5.5516 C   0  0  0  0  0  0  0  0  0  0  0  0
   15.1875    1.4830    4.4716 C   0  0  0  0  0  0  0  0  0  0  0  0
   17.3359    1.9132    5.8000 C   0  0  0  0  0  0  0  0  0  0  0  0
   15.8978    0.7970    3.5351 C   0  0  0  0  0  0  0  0  0  0  0  0
   13.6643    1.5189    4.4549 C   0  0  1  0  0  0  0  0  0  0  0  0
   18.1335    1.7839    4.5035 C   0  0  1  0  0  0  0  0  0  0  0  0
   17.4570    0.7401    3.5269 C   0  0  2  0  0  0  0  0  0  0  0  0
   15.1521   -0.0529    2.4835 C   0  0  2  0  0  0  0  0  0  0  0  0
   13.1165    0.1102    4.0185 C   0  0  2  0  0  0  0  0  0  0  0  0
   12.8769    1.7154    5.7632 C   0  0  0  0  0  0  0  0  0  0  0  0
   13.3025    2.7021    3.5110 C   0  0  0  0  0  0  0  0  0  0  0  0
   18.5565    3.1371    3.8151 C   0  0  0  0  0  0  0  0  0  0  0  0
   18.0426    0.9233    2.0944 C   0  0  0  0  0  0  0  0  0  0  0  0
   17.8546   -0.6792    4.0288 C   0  0  0  0  0  0  0  0  0  0  0  0
   15.4346    0.4400    1.1795 O   0  0  0  0  0  0  0  0  0  0  0  0
   13.6099   -0.1539    2.5977 C   0  0  0  0  0  0  0  0  0  0  0  0
   11.5739    0.1822    4.2955 C   0  0  1  0  0  0  0  0  0  0  0  0
   13.6382   -1.0643    4.9213 C   0  0  0  0  0  0  0  0  0  0  0  0
   11.4562    1.2444    5.4229 C   0  0  0  0  0  0  0  0  0  0  0  0
   19.6214    2.8037    2.7123 C   0  0  1  0  0  0  0  0  0  0  0  0
   19.2571    4.0786    4.8303 C   0  0  0  0  0  0  0  0  0  0  0  0
   17.3622    3.9443    3.2544 C   0  0  0  0  0  0  0  0  0  0  0  0
   19.4844    1.4100    2.0890 C   0  0  0  0  0  0  0  0  0  0  0  0
   10.6151    0.4350    3.1066 C   0  0  2  0  0  0  0  0  0  0  0  0
   19.6059    3.7934    1.6853 O   0  0  0  0  0  0  0  0  0  0  0  0
    9.1336    0.6777    3.4808 C   0  0  2  0  0  0  0  0  0  0  0  0
   10.5312   -0.7506    2.1193 C   0  0  0  0  0  0  0  0  0  0  0  0
    8.6859   -0.2605    4.4472 O   0  0  0  0  0  0  0  0  0  0  0  0
    8.4185    0.4654    2.1376 C   0  0  1  0  0  0  0  0  0  0  0  0
    9.0926   -0.7957    1.5915 C   0  0  0  0  0  0  0  0  0  0  0  0
    6.8709    0.4606    2.1338 C   0  0  0  0  0  0  0  0  0  0  0  0
    6.4329   -0.8313    2.5794 O   0  0  0  0  0  0  0  0  0  0  0  0
    6.1890    0.7515    0.7915 C   0  0  0  0  0  0  0  0  0  0  0  0
    6.3486    1.4691    3.1688 C   0  0  0  0  0  0  0  0  0  0  0  0
   17.3957    0.9880    6.3342 H   0  0  0  0  0  0  0  0  0  0  0  0
   17.7574    2.7187    6.3643 H   0  0  0  0  0  0  0  0  0  0  0  0
   19.0854    1.3884    4.7906 H   0  0  0  0  0  0  0  0  0  0  0  0
   15.5235   -1.0379    2.6753 H   0  0  0  0  0  0  0  0  0  0  0  0
   12.8757    2.7450    6.0542 H   0  0  0  0  0  0  0  0  0  0  0  0
   13.3024    1.1744    6.5824 H   0  0  0  0  0  0  0  0  0  0  0  0
   13.6452    2.4860    2.5207 H   0  0  0  0  0  0  0  0  0  0  0  0
   13.7725    3.5963    3.8638 H   0  0  0  0  0  0  0  0  0  0  0  0
   12.2411    2.8377    3.4996 H   0  0  0  0  0  0  0  0  0  0  0  0
   17.4415    1.6372    1.5709 H   0  0  0  0  0  0  0  0  0  0  0  0
   18.0315   -0.0372    1.6232 H   0  0  0  0  0  0  0  0  0  0  0  0
   17.3639   -1.4191    3.4315 H   0  0  0  0  0  0  0  0  0  0  0  0
   17.5585   -0.7921    5.0507 H   0  0  0  0  0  0  0  0  0  0  0  0
   18.9145   -0.8018    3.9490 H   0  0  0  0  0  0  0  0  0  0  0  0
   15.5292   -0.3050    0.5657 H   0  0  0  0  0  0  0  0  0  0  0  0
   13.3066   -1.1374    2.3051 H   0  0  0  0  0  0  0  0  0  0  0  0
   13.1844    0.5918    1.9590 H   0  0  0  0  0  0  0  0  0  0  0  0
   11.2233   -0.7930    4.5617 H   0  0  0  0  0  0  0  0  0  0  0  0
   13.4387   -0.8403    5.9484 H   0  0  0  0  0  0  0  0  0  0  0  0
   14.6923   -1.1817    4.7799 H   0  0  0  0  0  0  0  0  0  0  0  0
   13.1389   -1.9711    4.6505 H   0  0  0  0  0  0  0  0  0  0  0  0
   10.8681    2.0720    5.0850 H   0  0  0  0  0  0  0  0  0  0  0  0
   10.9807    0.8271    6.2858 H   0  0  0  0  0  0  0  0  0  0  0  0
   20.5613    2.8071    3.2236 H   0  0  0  0  0  0  0  0  0  0  0  0
   20.0132    3.5352    5.3575 H   0  0  0  0  0  0  0  0  0  0  0  0
   18.5357    4.4526    5.5265 H   0  0  0  0  0  0  0  0  0  0  0  0
   19.7055    4.8971    4.3069 H   0  0  0  0  0  0  0  0  0  0  0  0
   17.2205    3.7010    2.2221 H   0  0  0  0  0  0  0  0  0  0  0  0
   17.5629    4.9909    3.3500 H   0  0  0  0  0  0  0  0  0  0  0  0
   16.4770    3.6993    3.8034 H   0  0  0  0  0  0  0  0  0  0  0  0
   19.8327    1.4479    1.0780 H   0  0  0  0  0  0  0  0  0  0  0  0
   20.0660    0.7278    2.6730 H   0  0  0  0  0  0  0  0  0  0  0  0
   11.0602    1.3125    2.6860 H   0  0  0  0  0  0  0  0  0  0  0  0
   19.9665    4.6245    2.0318 H   0  0  0  0  0  0  0  0  0  0  0  0
    8.9560    1.6381    3.9180 H   0  0  0  0  0  0  0  0  0  0  0  0
   10.7663   -1.6650    2.6227 H   0  0  0  0  0  0  0  0  0  0  0  0
   11.2280   -0.6282    1.3165 H   0  0  0  0  0  0  0  0  0  0  0  0
    8.8882   -1.1592    4.1434 H   0  0  0  0  0  0  0  0  0  0  0  0
    8.5350    1.3172    1.5007 H   0  0  0  0  0  0  0  0  0  0  0  0
    8.5910   -1.6717    1.9465 H   0  0  0  0  0  0  0  0  0  0  0  0
    9.0622   -0.8315    0.5225 H   0  0  0  0  0  0  0  0  0  0  0  0
    5.4633   -0.8583    2.5895 H   0  0  0  0  0  0  0  0  0  0  0  0
    6.4997    1.7110    0.4341 H   0  0  0  0  0  0  0  0  0  0  0  0
    5.1271    0.7464    0.9225 H   0  0  0  0  0  0  0  0  0  0  0  0
    6.4643    0.0000    0.0813 H   0  0  0  0  0  0  0  0  0  0  0  0
    6.7459    2.4390    2.9537 H   0  0  0  0  0  0  0  0  0  0  0  0
    6.6562    1.1668    4.1481 H   0  0  0  0  0  0  0  0  0  0  0  0
    5.2801    1.5037    3.1254 H   0  0  0  0  0  0  0  0  0  0  0  0
  1  2  2  0  0  0  0
  2  3  1  0  0  0  0
  2  4  1  0  0  0  0
  3  5  2  0  0  0  0
  3  6  1  0  0  0  0
  4  7  1  0  0  0  0
  4 36  1  0  0  0  0
  4 37  1  0  0  0  0
  5  8  1  0  0  0  0
  5  9  1  0  0  0  0
  6 10  1  0  0  0  0
  6 11  1  0  0  0  0
  6 12  1  0  0  0  0
  7 13  1  0  0  0  0
  7  8  1  0  0  0  0
  7 38  1  0  0  0  0
  8 14  1  0  0  0  0
  8 15  1  0  0  0  0
  9 16  1  0  0  0  0
  9 17  1  0  0  0  0
  9 39  1  0  0  0  0
 10 18  1  0  0  0  0
 10 19  1  0  0  0  0
 10 17  1  0  0  0  0
 11 20  1  0  0  0  0
 11 40  1  0  0  0  0
 11 41  1  0  0  0  0
 12 42  1  0  0  0  0
 12 43  1  0  0  0  0
 12 44  1  0  0  0  0
 13 21  1  0  0  0  0
 13 22  1  0  0  0  0
 13 23  1  0  0  0  0
 14 24  1  0  0  0  0
 14 45  1  0  0  0  0
 14 46  1  0  0  0  0
 15 47  1  0  0  0  0
 15 48  1  0  0  0  0
 15 49  1  0  0  0  0
 16 50  1  0  0  0  0
 17 51  1  0  0  0  0
 17 52  1  0  0  0  0
 18 25  1  0  0  0  0
 18 20  1  0  0  0  0
 18 53  1  0  0  0  0
 19 54  1  0  0  0  0
 19 55  1  0  0  0  0
 19 56  1  0  0  0  0
 20 57  1  0  0  0  0
 20 58  1  0  0  0  0
 21 26  1  0  0  0  0
 21 24  1  0  0  0  0
 21 59  1  0  0  0  0
 22 60  1  0  0  0  0
 22 61  1  0  0  0  0
 22 62  1  0  0  0  0
 23 63  1  0  0  0  0
 23 64  1  0  0  0  0
 23 65  1  0  0  0  0
 24 66  1  0  0  0  0
 24 67  1  0  0  0  0
 25 27  1  0  0  0  0
 25 28  1  0  0  0  0
 25 68  1  0  0  0  0
 26 69  1  0  0  0  0
 27 29  1  0  0  0  0
 27 30  1  0  0  0  0
 27 70  1  0  0  0  0
 28 31  1  0  0  0  0
 28 71  1  0  0  0  0
 28 72  1  0  0  0  0
 29 73  1  0  0  0  0
 30 32  1  0  0  0  0
 30 31  1  0  0  0  0
 30 74  1  0  0  0  0
 31 75  1  0  0  0  0
 31 76  1  0  0  0  0
 32 33  1  0  0  0  0
 32 34  1  0  0  0  0
 32 35  1  0  0  0  0
 33 77  1  0  0  0  0
 34 78  1  0  0  0  0
 34 79  1  0  0  0  0
 34 80  1  0  0  0  0
 35 81  1  0  0  0  0
 35 82  1  0  0  0  0
 35 83  1  0  0  0  0
M  END
>  <Code-name>
128

>  <Compound>
Inonotusol E

>  <Specie>
Inonotus obliquus

>  <Reference>
GrÃ¼ndemann (2020)

>  <Organism>
Antitumoral Activity

>  <Smiles>
CC(C)([C@H](CC[C@@H]1[C@H](CC2)[C@@](C)(C[C@H]3O)[C@]2(C)C(C(C2)=O)=C3[C@@](C)(CC3)[C@H]2C(C)(C)[C@@H]3O)[C@H]1O)O

>  <MMFF94 Energy>
147.64

>  <Total Molweight>
488.706

>  <Molweight>
488.706

>  <Monoisotopic Mass>
488.350175

>  <cLogP>
4.2491

>  <cLogS>
-5.097

>  <H-Acceptors>
5

>  <H-Donors>
4

>  <Total Surface Area>
347.52

>  <Relative PSA>
0.18831

>  <Polar Surface Area>
97.99

>  <Druglikeness>
-1.285

>  <Mutagenic>
none

>  <Tumorigenic>
none

>  <Reproductive Effective>
none

>  <Irritant>
none

>  <Nasty Functions>


>  <Shape Index>
0.42857

>  <Molecular Flexibility>
0.18468

>  <Molecular Complexity>
1.0279

>  <Fragments>
1

>  <Non-H Atoms>
35

>  <Non-C/H Atoms>
5

>  <Metal-Atoms>
0

>  <Electronegative Atoms>
5

>  <Stereo Centers>
10

>  <Rotatable Bonds>
2

>  <Rings Closures>
5

>  <Small Rings>
5

>  <Aromatic Rings>
0

>  <Aromatic Atoms>
0

>  <sp3-Atoms>
31

>  <Symmetric atoms>
2

>  <Amides>
0

>  <Amines>
0

>  <Alkyl-Amines>
0

>  <Aromatic Amines>
0

>  <Aromatic Nitrogens>
0

>  <Basic Nitrogens>
0

>  <Acidic Oxygens>
0

>  <Stereo Configuration>
this enantiomer

> <Gold.Version>
5.8.1

> <Gold.Id.Protein>
ID_2|Prot_COX2_5IKQ_Alig|mol2

> <Gold.Goldscore.Fitness>
-65.7841

> <Gold.Goldscore.Internal.Vdw>
-33.7471

> <Gold.Goldscore.Internal.Torsion>
-6.1610

> <Gold.Goldscore.External.Vdw>
-40.4065

> <Gold.Goldscore.Internal.HBond>
0.0000

> <Gold.Goldscore.External.HBond>
0.6966

> <Gold.Goldscore.Internal.Correction>
-28.9864

> <Gold.Goldscore.Hbonds>
donor molecule, donor type, donor heavy atom, donor atom, acceptor molecule, acceptor atom, score
      P1  H  1377  1390       L1    16  0.03
      P1  H  5703  5712       L1    33  0.05
      P1  H  1361  1366       L1    26  0.12
      L1  H    16    50       P1  7952  0.02
      L1  H    33    77       P1  5703  0.05

> <Gold.Goldscore.Internal.Vdw.Weighted>
-33.7471

> <Gold.Goldscore.Internal.Torsion.Weighted>
-6.1610

> <Gold.Goldscore.External.Vdw.Weighted>
-55.5589

> <Gold.Goldscore.Internal.HBond.Weighted>
0.0000

> <Gold.Goldscore.External.HBond.Weighted>
0.6966

> <Gold.Goldscore.Internal.Correction.Weighted>
-28.9864

> <Gold.Protein.RotatedTorsions>
[ 5077 5068 5067 5065 ] final -170.25 input  179.94 | X-H torsion
[ 5157 5152 5151 5148 ] final  109.86 input -179.92 | X-H torsion
[ 5185 5176 5175 5173 ] final   25.06 input -179.99 | X-H torsion
[ 5712 5703 5702 5700 ] final  103.16 input  180.00 | X-H torsion
[ 8036 8031 8030 8027 ] final   67.45 input -179.94 | X-H torsion
[ 2749 2745 2743 2740 ] final   46.22 input  -60.05 | X-H torsion
[ 1366 1361 1360 1357 ] final  124.27 input  -60.09 | X-H torsion
[ 2556 2551 2550 2547 ] final   82.52 input   59.97 | X-H torsion

> <Gold.Protein.ActiveResidues>
 PRO86   VAL89   HIS90   LEU93   THR94   ILE112  MET113  TYR115  VAL116  LEU117 
 THR118  SER119  ARG120  SER121  LEU123  ILE124  GLN192  SER194  PHE198  PHE201 
 ALA202  GLN203  PHE205  THR206  PHE209  PHE210  VAL228  ILE341  ILE343  VAL344 
 ILE345  GLU346  ASP347  TYR348  VAL349  GLN350  HIS351  LEU352  SER353  GLY354 
 TYR355  PHE357  LEU359  LYS360  GLU380  PHE381  ASN382  THR383  LEU384  TYR385 
 HIS386  TRP387  LEU390  VAL434  LEU507  ARG513  ALA516  ILE517  PHE518  GLY519 
 GLU520  THR521  MET522  VAL523  GLU524  VAL525  GLY526  ALA527  PRO528  PHE529 
 SER530  LEU531  LYS532  GLY533  LEU534  MET535  COH609 

> <Gold.Protein.RotatedAtoms>
   18.5913    6.6296    2.2268 H   0  0  0  0  0  0  0  0  0  0  0  0  # atno 1366 bound_to 1361
    5.1140  -10.1673    7.1182 H   0  0  0  0  0  0  0  0  0  0  0  0  # atno 2556 bound_to 2551
   -4.1277    0.2822    0.3387 H   0  0  0  0  0  0  0  0  0  0  0  0  # atno 2749 bound_to 2745
    2.0217   -1.6760    3.6966 H   0  0  0  0  0  0  0  0  0  0  0  0  # atno 5077 bound_to 5068
   12.9359   -2.0996    9.1634 H   0  0  0  0  0  0  0  0  0  0  0  0  # atno 5157 bound_to 5152
   15.7133   -1.1022    4.6500 H   0  0  0  0  0  0  0  0  0  0  0  0  # atno 5185 bound_to 5176
    2.9997   -0.6344    2.4369 H   0  0  0  0  0  0  0  0  0  0  0  0  # atno 5712 bound_to 5703
    4.7684    4.4998    3.1964 H   0  0  0  0  0  0  0  0  0  0  0  0  # atno 8036 bound_to 8031
    0.5543   -1.6765    4.0253 LP  0  0  0  0  0  0  0  0  0  0  0  0  # atno 8267 bound_to 5068
    1.5092   -2.9852    4.2302 LP  0  0  0  0  0  0  0  0  0  0  0  0  # atno 8268 bound_to 5068
   11.7007   -2.9480    9.3025 LP  0  0  0  0  0  0  0  0  0  0  0  0  # atno 8279 bound_to 5152
   11.6614   -1.3157    9.3255 LP  0  0  0  0  0  0  0  0  0  0  0  0  # atno 8280 bound_to 5152
   16.6957   -0.0347    5.0425 LP  0  0  0  0  0  0  0  0  0  0  0  0  # atno 8281 bound_to 5176
   15.0920    0.2418    4.9074 LP  0  0  0  0  0  0  0  0  0  0  0  0  # atno 8282 bound_to 5176
    1.5973   -0.8667    2.9249 LP  0  0  0  0  0  0  0  0  0  0  0  0  # atno 8283 bound_to 5703
    2.1739    0.6157    2.5552 LP  0  0  0  0  0  0  0  0  0  0  0  0  # atno 8284 bound_to 5703
    5.9715    5.2766    3.6536 LP  0  0  0  0  0  0  0  0  0  0  0  0  # atno 8309 bound_to 8031
    5.9193    3.6444    3.6477 LP  0  0  0  0  0  0  0  0  0  0  0  0  # atno 8310 bound_to 8031
   -3.3979   -0.3431    1.4962 LP  0  0  0  0  0  0  0  0  0  0  0  0  # atno 8323 bound_to 2745
   -2.8695   -0.4477   -0.0454 LP  0  0  0  0  0  0  0  0  0  0  0  0  # atno 8324 bound_to 2745
   17.4897    7.6534    2.2756 LP  0  0  0  0  0  0  0  0  0  0  0  0  # atno 8335 bound_to 1361
   18.4683    7.3435    3.5456 LP  0  0  0  0  0  0  0  0  0  0  0  0  # atno 8336 bound_to 1361
    4.9255   -9.2301    8.2802 LP  0  0  0  0  0  0  0  0  0  0  0  0  # atno 8342 bound_to 2551
    4.4870   -8.8488    6.7541 LP  0  0  0  0  0  0  0  0  0  0  0  0  # atno 8343 bound_to 2551

