
012|LMW3_p|sdf|12|dock441
  -GOLD-   6 62222573D 1   1.00000     0.00000

 73 76  0  0  0  0  0  0  0  0  1 V2000
   17.6401    4.8402    3.6318 O   0  0  0  0  0  0  0  0  0  0  0  0
   18.6206    4.8263    2.5966 C   0  0  2  0  0  0  0  0  0  0  0  0
   17.9612    5.2060    1.2670 C   0  0  0  0  0  0  0  0  0  0  0  0
   19.2701    3.4454    2.5654 C   0  0  0  0  0  0  0  0  0  0  0  0
   18.8858    4.9975    0.0515 C   0  0  2  0  0  0  0  0  0  0  0  0
   20.1520    3.2223    1.3339 C   0  0  0  0  0  0  0  0  0  0  0  0
   19.4369    3.5428   -0.0156 C   0  0  2  0  0  0  0  0  0  0  0  0
   20.0056    6.0611    0.0726 C   0  0  0  0  0  0  0  0  0  0  0  0
   20.4701    3.3803   -1.2021 C   0  0  2  0  0  0  0  0  0  0  0  0
   18.2711    2.5353   -0.1929 C   0  0  0  0  0  0  0  0  0  0  0  0
   21.1559    5.7696   -0.8309 C   0  0  0  0  0  0  0  0  0  0  0  0
   21.3800    4.5799   -1.4108 C   0  0  0  0  0  0  0  0  0  0  0  0
   19.8592    3.0502   -2.5821 C   0  0  0  0  0  0  0  0  0  0  0  0
   22.4890    4.4147   -2.4285 C   0  0  2  0  0  0  0  0  0  0  0  0
   20.9497    2.7593   -3.6263 C   0  0  0  0  0  0  0  0  0  0  0  0
   21.9698    3.9113   -3.8035 C   0  0  2  0  0  0  0  0  0  0  0  0
   23.5959    3.4364   -2.0223 C   0  0  0  0  0  0  0  0  0  0  0  0
   23.3037    3.4479   -4.4737 C   0  0  1  0  0  0  0  0  0  0  0  0
   21.3058    5.0778   -4.5618 C   0  0  0  0  0  0  0  0  0  0  0  0
   24.0692    2.7746   -3.3148 C   0  0  0  0  0  0  0  0  0  0  0  0
   23.2176    2.5346   -5.7272 C   0  0  1  0  0  0  0  0  0  0  0  0
   23.5832    3.2655   -7.0003 C   0  0  0  0  0  0  0  0  0  0  0  0
   24.1539    1.3223   -5.6074 C   0  0  0  0  0  0  0  0  0  0  0  0
   23.0434    2.9862   -8.1970 C   0  0  0  0  0  0  0  0  0  0  0  0
   23.3175    3.6109   -9.4869 C   0  0  0  0  0  0  0  0  0  0  0  0
   24.5534    4.1085   -9.6886 C   0  0  0  0  0  0  0  0  0  0  0  0
   22.2852    3.7344  -10.6064 C   0  0  0  0  0  0  0  0  0  0  0  0
   22.5356    2.7789  -11.7770 C   0  0  0  0  0  0  0  0  0  0  0  0
   22.0596    5.1739  -11.0778 C   0  0  0  0  0  0  0  0  0  0  0  0
   16.9904    4.1381    3.4712 H   0  0  0  0  0  0  0  0  0  0  0  0
   19.3912    5.5463    2.7774 H   0  0  0  0  0  0  0  0  0  0  0  0
   17.6809    6.2378    1.3084 H   0  0  0  0  0  0  0  0  0  0  0  0
   17.1141    4.5655    1.1369 H   0  0  0  0  0  0  0  0  0  0  0  0
   18.4970    2.7057    2.5687 H   0  0  0  0  0  0  0  0  0  0  0  0
   19.9009    3.3708    3.4264 H   0  0  0  0  0  0  0  0  0  0  0  0
   18.3191    5.1280   -0.8466 H   0  0  0  0  0  0  0  0  0  0  0  0
   20.4583    2.1972    1.3188 H   0  0  0  0  0  0  0  0  0  0  0  0
   20.9803    3.8946    1.4164 H   0  0  0  0  0  0  0  0  0  0  0  0
   20.3775    6.1345    1.0732 H   0  0  0  0  0  0  0  0  0  0  0  0
   19.5663    6.9710   -0.2796 H   0  0  0  0  0  0  0  0  0  0  0  0
   21.0294    2.5374   -0.8537 H   0  0  0  0  0  0  0  0  0  0  0  0
   17.6928    2.4969    0.7066 H   0  0  0  0  0  0  0  0  0  0  0  0
   18.6679    1.5641   -0.4035 H   0  0  0  0  0  0  0  0  0  0  0  0
   17.6483    2.8497   -1.0042 H   0  0  0  0  0  0  0  0  0  0  0  0
   21.8234    6.5328   -1.0231 H   0  0  0  0  0  0  0  0  0  0  0  0
   19.2753    3.8838   -2.9123 H   0  0  0  0  0  0  0  0  0  0  0  0
   19.2511    2.1759   -2.4795 H   0  0  0  0  0  0  0  0  0  0  0  0
   22.8885    5.4054   -2.4892 H   0  0  0  0  0  0  0  0  0  0  0  0
   20.4753    2.5811   -4.5686 H   0  0  0  0  0  0  0  0  0  0  0  0
   21.4975    1.9096   -3.2759 H   0  0  0  0  0  0  0  0  0  0  0  0
   23.2121    2.7006   -1.3469 H   0  0  0  0  0  0  0  0  0  0  0  0
   24.3981    3.9383   -1.5228 H   0  0  0  0  0  0  0  0  0  0  0  0
   23.7861    4.2980   -4.9090 H   0  0  0  0  0  0  0  0  0  0  0  0
   22.0392    5.8265   -4.7772 H   0  0  0  0  0  0  0  0  0  0  0  0
   20.5308    5.5010   -3.9575 H   0  0  0  0  0  0  0  0  0  0  0  0
   20.8866    4.7154   -5.4771 H   0  0  0  0  0  0  0  0  0  0  0  0
   23.8532    1.7269   -3.2916 H   0  0  0  0  0  0  0  0  0  0  0  0
   25.1258    2.8894   -3.4377 H   0  0  0  0  0  0  0  0  0  0  0  0
   22.1970    2.2171   -5.7760 H   0  0  0  0  0  0  0  0  0  0  0  0
   24.2856    4.0196   -6.9457 H   0  0  0  0  0  0  0  0  0  0  0  0
   24.3242    0.9058   -6.5782 H   0  0  0  0  0  0  0  0  0  0  0  0
   23.7033    0.5845   -4.9768 H   0  0  0  0  0  0  0  0  0  0  0  0
   25.0863    1.6322   -5.1837 H   0  0  0  0  0  0  0  0  0  0  0  0
   22.3416    2.2296   -8.2060 H   0  0  0  0  0  0  0  0  0  0  0  0
   25.2664    4.0360   -8.9460 H   0  0  0  0  0  0  0  0  0  0  0  0
   24.7869    4.5620  -10.5857 H   0  0  0  0  0  0  0  0  0  0  0  0
   21.3665    3.4219  -10.1556 H   0  0  0  0  0  0  0  0  0  0  0  0
   23.4785    3.0072  -12.2285 H   0  0  0  0  0  0  0  0  0  0  0  0
   21.7566    2.8912  -12.5019 H   0  0  0  0  0  0  0  0  0  0  0  0
   22.5467    1.7708  -11.4185 H   0  0  0  0  0  0  0  0  0  0  0  0
   21.9832    5.8197  -10.2280 H   0  0  0  0  0  0  0  0  0  0  0  0
   21.1550    5.2250  -11.6471 H   0  0  0  0  0  0  0  0  0  0  0  0
   22.8827    5.4827  -11.6876 H   0  0  0  0  0  0  0  0  0  0  0  0
  1  2  1  0  0  0  0
  1 30  1  0  0  0  0
  2  3  1  0  0  0  0
  2  4  1  0  0  0  0
  2 31  1  0  0  0  0
  3  5  1  0  0  0  0
  3 32  1  0  0  0  0
  3 33  1  0  0  0  0
  4  6  1  0  0  0  0
  4 34  1  0  0  0  0
  4 35  1  0  0  0  0
  5  7  1  0  0  0  0
  5  8  1  0  0  0  0
  5 36  1  0  0  0  0
  6  7  1  0  0  0  0
  6 37  1  0  0  0  0
  6 38  1  0  0  0  0
  7  9  1  0  0  0  0
  7 10  1  0  0  0  0
  8 11  1  0  0  0  0
  8 39  1  0  0  0  0
  8 40  1  0  0  0  0
  9 12  1  0  0  0  0
  9 13  1  0  0  0  0
  9 41  1  0  0  0  0
 10 42  1  0  0  0  0
 10 43  1  0  0  0  0
 10 44  1  0  0  0  0
 11 12  2  0  0  0  0
 11 45  1  0  0  0  0
 12 14  1  0  0  0  0
 13 15  1  0  0  0  0
 13 46  1  0  0  0  0
 13 47  1  0  0  0  0
 14 16  1  0  0  0  0
 14 17  1  0  0  0  0
 14 48  1  0  0  0  0
 15 16  1  0  0  0  0
 15 49  1  0  0  0  0
 15 50  1  0  0  0  0
 16 18  1  0  0  0  0
 16 19  1  0  0  0  0
 17 20  1  0  0  0  0
 17 51  1  0  0  0  0
 17 52  1  0  0  0  0
 18 21  1  0  0  0  0
 18 20  1  0  0  0  0
 18 53  1  0  0  0  0
 19 54  1  0  0  0  0
 19 55  1  0  0  0  0
 19 56  1  0  0  0  0
 20 57  1  0  0  0  0
 20 58  1  0  0  0  0
 21 22  1  0  0  0  0
 21 23  1  0  0  0  0
 21 59  1  0  0  0  0
 22 24  2  0  0  0  0
 22 60  1  0  0  0  0
 23 61  1  0  0  0  0
 23 62  1  0  0  0  0
 23 63  1  0  0  0  0
 24 25  1  0  0  0  0
 24 64  1  0  0  0  0
 25 26  2  0  0  0  0
 25 27  1  0  0  0  0
 26 65  1  0  0  0  0
 26 66  1  0  0  0  0
 27 28  1  0  0  0  0
 27 29  1  0  0  0  0
 27 67  1  0  0  0  0
 28 68  1  0  0  0  0
 28 69  1  0  0  0  0
 28 70  1  0  0  0  0
 29 71  1  0  0  0  0
 29 72  1  0  0  0  0
 29 73  1  0  0  0  0
M  END
>  <Code-name>
012

>  <Compound>
(3β,5α,22E)-Ergosta-7,22,24(28)-trien-3-ol

>  <Specie>
Morchella esculenta

>  <Reference>
LEE et al., 2018

>  <Organism>
Antitumoral Activity

>  <Smiles>
CC(C)C(/C=C/[C@@H](C)[C@H](CC1)[C@]2(C)[C@H]1C1=CC[C@H](C[C@H](CC3)O)[C@@]3(C)[C@H]1CC2)=C

>  <MMFF94 Energy>
91.403

>  <Total Molweight>
396.656

>  <Molweight>
396.656

>  <Monoisotopic Mass>
396.339215

>  <cLogP>
7.3512

>  <cLogS>
-6.074

>  <H-Acceptors>
1

>  <H-Donors>
1

>  <Total Surface Area>
319.51

>  <Relative PSA>
0.041

>  <Polar Surface Area>
20.23

>  <Druglikeness>
-1.9857

>  <Mutagenic>
none

>  <Tumorigenic>
low

>  <Reproductive Effective>
none

>  <Irritant>
none

>  <Nasty Functions>


>  <Shape Index>
0.55172

>  <Molecular Flexibility>
0.26982

>  <Molecular Complexity>
0.93607

>  <Fragments>
1

>  <Non-H Atoms>
29

>  <Non-C/H Atoms>
1

>  <Metal-Atoms>
0

>  <Electronegative Atoms>
1

>  <Stereo Centers>
8

>  <Rotatable Bonds>
4

>  <Rings Closures>
4

>  <Small Rings>
4

>  <Aromatic Rings>
0

>  <Aromatic Atoms>
0

>  <sp3-Atoms>
23

>  <Symmetric atoms>
1

>  <Amides>
0

>  <Amines>
0

>  <Alkyl-Amines>
0

>  <Aromatic Amines>
0

>  <Aromatic Nitrogens>
0

>  <Basic Nitrogens>
0

>  <Acidic Oxygens>
0

>  <Stereo Configuration>
this enantiomer

> <Gold.Version>
5.8.1

> <Gold.Id.Protein>
ID_2|Prot_COX2_5IKQ_Alig|mol2

> <Gold.Goldscore.Fitness>
26.7742

> <Gold.Goldscore.Internal.Vdw>
-25.4409

> <Gold.Goldscore.Internal.Torsion>
-6.7502

> <Gold.Goldscore.External.Vdw>
33.9271

> <Gold.Goldscore.Internal.HBond>
0.0000

> <Gold.Goldscore.External.HBond>
0.0000

> <Gold.Goldscore.Internal.Correction>
-12.3155

> <Gold.Goldscore.Internal.Vdw.Weighted>
-25.4409

> <Gold.Goldscore.Internal.Torsion.Weighted>
-6.7502

> <Gold.Goldscore.External.Vdw.Weighted>
46.6498

> <Gold.Goldscore.Internal.HBond.Weighted>
0.0000

> <Gold.Goldscore.External.HBond.Weighted>
0.0000

> <Gold.Goldscore.Internal.Correction.Weighted>
-12.3155

> <Gold.Protein.RotatedTorsions>
[ 5077 5068 5067 5065 ] final -101.47 input  179.94 | X-H torsion
[ 5157 5152 5151 5148 ] final  165.77 input -179.92 | X-H torsion
[ 5185 5176 5175 5173 ] final  -22.40 input -179.99 | X-H torsion
[ 5712 5703 5702 5700 ] final   84.27 input  180.00 | X-H torsion
[ 8036 8031 8030 8027 ] final  133.45 input -179.94 | X-H torsion
[ 2749 2745 2743 2740 ] final  -36.20 input  -60.05 | X-H torsion
[ 1366 1361 1360 1357 ] final  -44.49 input  -60.09 | X-H torsion
[ 2556 2551 2550 2547 ] final  115.72 input   59.97 | X-H torsion

> <Gold.Protein.ActiveResidues>
 PRO86   VAL89   HIS90   LEU93   THR94   ILE112  MET113  TYR115  VAL116  LEU117 
 THR118  SER119  ARG120  SER121  LEU123  ILE124  GLN192  SER194  PHE198  PHE201 
 ALA202  GLN203  PHE205  THR206  PHE209  PHE210  VAL228  ILE341  ILE343  VAL344 
 ILE345  GLU346  ASP347  TYR348  VAL349  GLN350  HIS351  LEU352  SER353  GLY354 
 TYR355  PHE357  LEU359  LYS360  GLU380  PHE381  ASN382  THR383  LEU384  TYR385 
 HIS386  TRP387  LEU390  VAL434  LEU507  ARG513  ALA516  ILE517  PHE518  GLY519 
 GLU520  THR521  MET522  VAL523  GLU524  VAL525  GLY526  ALA527  PRO528  PHE529 
 SER530  LEU531  LYS532  GLY533  LEU534  MET535  COH609 

> <Gold.Protein.RotatedAtoms>
   17.7766    7.7735    2.9356 H   0  0  0  0  0  0  0  0  0  0  0  0  # atno 1366 bound_to 1361
    4.9521   -9.9531    6.7553 H   0  0  0  0  0  0  0  0  0  0  0  0  # atno 2556 bound_to 2551
   -3.8297   -0.0154    1.2904 H   0  0  0  0  0  0  0  0  0  0  0  0  # atno 2749 bound_to 2745
    2.0613   -2.5212    3.9779 H   0  0  0  0  0  0  0  0  0  0  0  0  # atno 5077 bound_to 5068
   12.5741   -1.4538    9.2019 H   0  0  0  0  0  0  0  0  0  0  0  0  # atno 5157 bound_to 5152
   16.3188   -0.9590    4.7722 H   0  0  0  0  0  0  0  0  0  0  0  0  # atno 5185 bound_to 5176
    2.8717   -0.8491    2.5034 H   0  0  0  0  0  0  0  0  0  0  0  0  # atno 5712 bound_to 5703
    5.1871    3.7652    3.3469 H   0  0  0  0  0  0  0  0  0  0  0  0  # atno 8036 bound_to 8031
    1.4257   -1.2018    3.6367 LP  0  0  0  0  0  0  0  0  0  0  0  0  # atno 8267 bound_to 5068
    0.5904   -2.4478    4.2820 LP  0  0  0  0  0  0  0  0  0  0  0  0  # atno 8268 bound_to 5068
   12.5819   -2.9586    9.2275 LP  0  0  0  0  0  0  0  0  0  0  0  0  # atno 8279 bound_to 5152
   11.2129   -2.0775    9.3544 LP  0  0  0  0  0  0  0  0  0  0  0  0  # atno 8280 bound_to 5152
   16.1560    0.4935    5.1222 LP  0  0  0  0  0  0  0  0  0  0  0  0  # atno 8281 bound_to 5176
   14.9047   -0.4585    4.6811 LP  0  0  0  0  0  0  0  0  0  0  0  0  # atno 8282 bound_to 5176
    1.4535   -0.5924    2.9297 LP  0  0  0  0  0  0  0  0  0  0  0  0  # atno 8283 bound_to 5703
    2.4714    0.5991    2.4705 LP  0  0  0  0  0  0  0  0  0  0  0  0  # atno 8284 bound_to 5703
    5.0004    5.2565    3.3175 LP  0  0  0  0  0  0  0  0  0  0  0  0  # atno 8309 bound_to 8031
    6.3880    4.5458    3.8033 LP  0  0  0  0  0  0  0  0  0  0  0  0  # atno 8310 bound_to 8031
   -2.6962   -0.6208    0.5081 LP  0  0  0  0  0  0  0  0  0  0  0  0  # atno 8323 bound_to 2745
   -3.9281    0.1863   -0.1972 LP  0  0  0  0  0  0  0  0  0  0  0  0  # atno 8324 bound_to 2745
   18.8728    6.7756    3.1937 LP  0  0  0  0  0  0  0  0  0  0  0  0  # atno 8335 bound_to 1361
   18.0599    6.8530    1.7796 LP  0  0  0  0  0  0  0  0  0  0  0  0  # atno 8336 bound_to 1361
    5.1450   -9.7197    8.2292 LP  0  0  0  0  0  0  0  0  0  0  0  0  # atno 8342 bound_to 2551
    4.4612   -8.6156    7.2393 LP  0  0  0  0  0  0  0  0  0  0  0  0  # atno 8343 bound_to 2551

