
129|LMW3_p|sdf|129|dock2
  -GOLD-   6 922 5293D 1   1.00000     0.00000

 82 86  0  0  0  0  0  0  0  0  1 V2000
   15.7556    2.4594    7.8750 O   0  0  0  0  0  0  0  0  0  0  0  0
   16.0072    2.8652    6.7512 C   0  0  0  0  0  0  0  0  0  0  0  0
   17.0548    3.6903    6.4707 O   0  0  0  0  0  0  0  0  0  0  0  0
   15.2611    2.4948    5.4872 C   0  0  1  0  0  0  0  0  0  0  0  0
   17.0898    3.9905    5.0737 C   0  0  2  0  0  0  0  0  0  0  0  0
   13.7525    2.3258    5.7528 C   0  0  2  0  0  0  0  0  0  0  0  0
   15.7310    3.5760    4.5335 C   0  0  0  0  0  0  0  0  0  0  0  0
   18.2837    3.3303    4.3849 C   0  0  0  0  0  0  0  0  0  0  0  0
   12.8614    1.6766    4.6592 C   0  0  2  0  0  0  0  0  0  0  0  0
   12.9647    3.6045    6.1449 C   0  0  0  0  0  0  0  0  0  0  0  0
   18.7119    3.7191    3.1545 C   0  0  0  0  0  0  0  0  0  0  0  0
   18.9651    2.2361    5.1778 C   0  0  0  0  0  0  0  0  0  0  0  0
   11.4215    1.9351    5.2357 C   0  0  1  0  0  0  0  0  0  0  0  0
   13.0354    0.1669    4.4749 C   0  0  0  0  0  0  0  0  0  0  0  0
   13.1039    2.3659    3.2822 C   0  0  0  0  0  0  0  0  0  0  0  0
   11.5334    3.4324    5.5859 C   0  0  0  0  0  0  0  0  0  0  0  0
   18.0112    4.7535    2.3022 C   0  0  0  0  0  0  0  0  0  0  0  0
   19.9487    3.1760    2.4754 C   0  0  0  0  0  0  0  0  0  0  0  0
   10.3719    1.4643    4.2351 C   0  0  0  0  0  0  0  0  0  0  0  0
   11.0785    1.1795    6.5582 C   0  0  0  0  0  0  0  0  0  0  0  0
   11.9247   -0.4210    3.5773 C   0  0  0  0  0  0  0  0  0  0  0  0
   10.5929    0.3420    3.4995 C   0  0  0  0  0  0  0  0  0  0  0  0
    9.0910    2.2625    4.1750 C   0  0  0  0  0  0  0  0  0  0  0  0
    9.5315   -0.1928    2.4978 C   0  0  2  0  0  0  0  0  0  0  0  0
    8.0716    1.7946    3.1358 C   0  0  0  0  0  0  0  0  0  0  0  0
    8.1027    0.2652    2.9815 C   0  0  1  0  0  0  0  0  0  0  0  0
    9.5361   -1.7412    2.4345 C   0  0  0  0  0  0  0  0  0  0  0  0
    9.9505    0.3719    1.1192 C   0  0  0  0  0  0  0  0  0  0  0  0
    6.8607   -0.3444    2.2257 C   0  0  0  0  0  0  0  0  0  0  0  0
    8.3974   -2.3183    1.6028 C   0  0  0  0  0  0  0  0  0  0  0  0
    7.0335   -1.8896    2.1321 C   0  0  2  0  0  0  0  0  0  0  0  0
    6.5973    0.2736    0.8368 C   0  0  0  0  0  0  0  0  0  0  0  0
    5.5769   -0.0687    3.0614 C   0  0  0  0  0  0  0  0  0  0  0  0
    6.0485   -2.4830    1.2871 O   0  0  0  0  0  0  0  0  0  0  0  0
   15.4606    1.5347    5.0590 H   0  0  0  0  0  0  0  0  0  0  0  0
   17.2459    5.0309    4.8789 H   0  0  0  0  0  0  0  0  0  0  0  0
   13.8868    1.6499    6.5712 H   0  0  0  0  0  0  0  0  0  0  0  0
   15.0535    4.4042    4.5362 H   0  0  0  0  0  0  0  0  0  0  0  0
   15.7813    3.2336    3.5210 H   0  0  0  0  0  0  0  0  0  0  0  0
   13.4270    4.4687    5.7156 H   0  0  0  0  0  0  0  0  0  0  0  0
   12.9502    3.7376    7.2065 H   0  0  0  0  0  0  0  0  0  0  0  0
   18.2606    1.7897    5.8481 H   0  0  0  0  0  0  0  0  0  0  0  0
   19.7754    2.6535    5.7382 H   0  0  0  0  0  0  0  0  0  0  0  0
   19.3411    1.4913    4.5078 H   0  0  0  0  0  0  0  0  0  0  0  0
   12.9969   -0.3078    5.4331 H   0  0  0  0  0  0  0  0  0  0  0  0
   13.9794   -0.0089    4.0029 H   0  0  0  0  0  0  0  0  0  0  0  0
   12.3064    2.1175    2.6136 H   0  0  0  0  0  0  0  0  0  0  0  0
   14.0320    2.0265    2.8721 H   0  0  0  0  0  0  0  0  0  0  0  0
   13.1399    3.4269    3.4160 H   0  0  0  0  0  0  0  0  0  0  0  0
   11.3956    4.0347    4.7123 H   0  0  0  0  0  0  0  0  0  0  0  0
   10.7870    3.7386    6.2889 H   0  0  0  0  0  0  0  0  0  0  0  0
   17.1377    5.1031    2.8118 H   0  0  0  0  0  0  0  0  0  0  0  0
   17.7276    4.3138    1.3688 H   0  0  0  0  0  0  0  0  0  0  0  0
   18.6725    5.5754    2.1229 H   0  0  0  0  0  0  0  0  0  0  0  0
   20.0746    3.6555    1.5272 H   0  0  0  0  0  0  0  0  0  0  0  0
   19.8418    2.1213    2.3303 H   0  0  0  0  0  0  0  0  0  0  0  0
   20.8049    3.3669    3.0881 H   0  0  0  0  0  0  0  0  0  0  0  0
   10.2387    1.6470    7.0284 H   0  0  0  0  0  0  0  0  0  0  0  0
   11.9207    1.2134    7.2171 H   0  0  0  0  0  0  0  0  0  0  0  0
   10.8408    0.1603    6.3353 H   0  0  0  0  0  0  0  0  0  0  0  0
   11.7091   -1.4050    3.9381 H   0  0  0  0  0  0  0  0  0  0  0  0
   12.3233   -0.3726    2.5855 H   0  0  0  0  0  0  0  0  0  0  0  0
    9.3454    3.2779    3.9532 H   0  0  0  0  0  0  0  0  0  0  0  0
    8.6198    2.1340    5.1271 H   0  0  0  0  0  0  0  0  0  0  0  0
    8.3008    2.2459    2.1931 H   0  0  0  0  0  0  0  0  0  0  0  0
    7.0947    2.0839    3.4629 H   0  0  0  0  0  0  0  0  0  0  0  0
    7.9647   -0.1806    3.9444 H   0  0  0  0  0  0  0  0  0  0  0  0
    9.4539   -2.1212    3.4313 H   0  0  0  0  0  0  0  0  0  0  0  0
   10.4506   -2.0343    1.9627 H   0  0  0  0  0  0  0  0  0  0  0  0
    9.1923    1.0364    0.7606 H   0  0  0  0  0  0  0  0  0  0  0  0
   10.0750   -0.4341    0.4265 H   0  0  0  0  0  0  0  0  0  0  0  0
   10.8737    0.9038    1.2172 H   0  0  0  0  0  0  0  0  0  0  0  0
    8.4579   -3.3863    1.6271 H   0  0  0  0  0  0  0  0  0  0  0  0
    8.4964   -1.9493    0.6033 H   0  0  0  0  0  0  0  0  0  0  0  0
    6.9261   -2.2282    3.1414 H   0  0  0  0  0  0  0  0  0  0  0  0
    5.6267   -0.0191    0.4944 H   0  0  0  0  0  0  0  0  0  0  0  0
    7.3382   -0.0719    0.1464 H   0  0  0  0  0  0  0  0  0  0  0  0
    6.6443    1.3403    0.9063 H   0  0  0  0  0  0  0  0  0  0  0  0
    4.7974   -0.7307    2.7467 H   0  0  0  0  0  0  0  0  0  0  0  0
    5.2658    0.9443    2.9134 H   0  0  0  0  0  0  0  0  0  0  0  0
    5.7849   -0.2300    4.0985 H   0  0  0  0  0  0  0  0  0  0  0  0
    6.2544   -2.2829    0.3606 H   0  0  0  0  0  0  0  0  0  0  0  0
  1  2  2  0  0  0  0
  2  3  1  0  0  0  0
  2  4  1  0  0  0  0
  3  5  1  0  0  0  0
  4  6  1  0  0  0  0
  4  7  1  0  0  0  0
  4 35  1  0  0  0  0
  5  8  1  0  0  0  0
  5  7  1  0  0  0  0
  5 36  1  0  0  0  0
  6  9  1  0  0  0  0
  6 10  1  0  0  0  0
  6 37  1  0  0  0  0
  7 38  1  0  0  0  0
  7 39  1  0  0  0  0
  8 11  2  0  0  0  0
  8 12  1  0  0  0  0
  9 13  1  0  0  0  0
  9 14  1  0  0  0  0
  9 15  1  0  0  0  0
 10 16  1  0  0  0  0
 10 40  1  0  0  0  0
 10 41  1  0  0  0  0
 11 17  1  0  0  0  0
 11 18  1  0  0  0  0
 12 42  1  0  0  0  0
 12 43  1  0  0  0  0
 12 44  1  0  0  0  0
 13 19  1  0  0  0  0
 13 20  1  0  0  0  0
 13 16  1  0  0  0  0
 14 21  1  0  0  0  0
 14 45  1  0  0  0  0
 14 46  1  0  0  0  0
 15 47  1  0  0  0  0
 15 48  1  0  0  0  0
 15 49  1  0  0  0  0
 16 50  1  0  0  0  0
 16 51  1  0  0  0  0
 17 52  1  0  0  0  0
 17 53  1  0  0  0  0
 17 54  1  0  0  0  0
 18 55  1  0  0  0  0
 18 56  1  0  0  0  0
 18 57  1  0  0  0  0
 19 22  2  0  0  0  0
 19 23  1  0  0  0  0
 20 58  1  0  0  0  0
 20 59  1  0  0  0  0
 20 60  1  0  0  0  0
 21 22  1  0  0  0  0
 21 61  1  0  0  0  0
 21 62  1  0  0  0  0
 22 24  1  0  0  0  0
 23 25  1  0  0  0  0
 23 63  1  0  0  0  0
 23 64  1  0  0  0  0
 24 26  1  0  0  0  0
 24 27  1  0  0  0  0
 24 28  1  0  0  0  0
 25 26  1  0  0  0  0
 25 65  1  0  0  0  0
 25 66  1  0  0  0  0
 26 29  1  0  0  0  0
 26 67  1  0  0  0  0
 27 30  1  0  0  0  0
 27 68  1  0  0  0  0
 27 69  1  0  0  0  0
 28 70  1  0  0  0  0
 28 71  1  0  0  0  0
 28 72  1  0  0  0  0
 29 31  1  0  0  0  0
 29 32  1  0  0  0  0
 29 33  1  0  0  0  0
 30 31  1  0  0  0  0
 30 73  1  0  0  0  0
 30 74  1  0  0  0  0
 31 34  1  0  0  0  0
 31 75  1  0  0  0  0
 32 76  1  0  0  0  0
 32 77  1  0  0  0  0
 32 78  1  0  0  0  0
 33 79  1  0  0  0  0
 33 80  1  0  0  0  0
 33 81  1  0  0  0  0
 34 82  1  0  0  0  0
M  END
>  <Code-name>
129

>  <Compound>
Inonotusol F

>  <Specie>
Inonotus obliquus

>  <Reference>
GrÃ¼ndemann (2020)

>  <Organism>
Antitumoral Activity

>  <Smiles>
C[C@@](CC1)([C@](C)(CC2)[C@H]1[C@@H](C[C@H](C(C)=C(C)C)O1)C1=O)C(CC1)=C2[C@@](C)(CC2)[C@@H]1C(C)(C)[C@H]2O

>  <MMFF94 Energy>
118.15

>  <Total Molweight>
468.719

>  <Molweight>
468.719

>  <Monoisotopic Mass>
468.360345

>  <cLogP>
7.0431

>  <cLogS>
-6.134

>  <H-Acceptors>
3

>  <H-Donors>
1

>  <Total Surface Area>
352

>  <Relative PSA>
0.10267

>  <Polar Surface Area>
46.53

>  <Druglikeness>
-4.9765

>  <Mutagenic>
none

>  <Tumorigenic>
none

>  <Reproductive Effective>
high

>  <Irritant>
none

>  <Nasty Functions>


>  <Shape Index>
0.47059

>  <Molecular Flexibility>
0.17067

>  <Molecular Complexity>
1.0172

>  <Fragments>
1

>  <Non-H Atoms>
34

>  <Non-C/H Atoms>
3

>  <Metal-Atoms>
0

>  <Electronegative Atoms>
3

>  <Stereo Centers>
8

>  <Rotatable Bonds>
2

>  <Rings Closures>
5

>  <Small Rings>
5

>  <Aromatic Rings>
0

>  <Aromatic Atoms>
0

>  <sp3-Atoms>
28

>  <Symmetric atoms>
2

>  <Amides>
0

>  <Amines>
0

>  <Alkyl-Amines>
0

>  <Aromatic Amines>
0

>  <Aromatic Nitrogens>
0

>  <Basic Nitrogens>
0

>  <Acidic Oxygens>
0

>  <Stereo Configuration>
this enantiomer

> <Gold.Version>
5.8.1

> <Gold.Id.Protein>
ID_2|Prot_COX2_5IKQ_Alig|mol2

> <Gold.Goldscore.Fitness>
-61.0810

> <Gold.Goldscore.Internal.Vdw>
-30.4489

> <Gold.Goldscore.Internal.Torsion>
-8.3646

> <Gold.Goldscore.External.Vdw>
-39.9823

> <Gold.Goldscore.Internal.HBond>
0.0000

> <Gold.Goldscore.External.HBond>
0.0000

> <Gold.Goldscore.Internal.Correction>
-32.7081

> <Gold.Goldscore.Internal.Vdw.Weighted>
-30.4489

> <Gold.Goldscore.Internal.Torsion.Weighted>
-8.3646

> <Gold.Goldscore.External.Vdw.Weighted>
-54.9756

> <Gold.Goldscore.Internal.HBond.Weighted>
0.0000

> <Gold.Goldscore.External.HBond.Weighted>
0.0000

> <Gold.Goldscore.Internal.Correction.Weighted>
-32.7081

> <Gold.Protein.RotatedTorsions>
[ 5077 5068 5067 5065 ] final  169.70 input  179.94 | X-H torsion
[ 5157 5152 5151 5148 ] final -172.68 input -179.92 | X-H torsion
[ 5185 5176 5175 5173 ] final   -4.69 input -179.99 | X-H torsion
[ 5712 5703 5702 5700 ] final -156.14 input  180.00 | X-H torsion
[ 8036 8031 8030 8027 ] final  138.02 input -179.94 | X-H torsion
[ 2749 2745 2743 2740 ] final  -11.37 input  -60.05 | X-H torsion
[ 1366 1361 1360 1357 ] final  -60.51 input  -60.09 | X-H torsion
[ 2556 2551 2550 2547 ] final -140.05 input   59.97 | X-H torsion

> <Gold.Protein.ActiveResidues>
 PRO86   VAL89   HIS90   LEU93   THR94   ILE112  MET113  TYR115  VAL116  LEU117 
 THR118  SER119  ARG120  SER121  LEU123  ILE124  GLN192  SER194  PHE198  PHE201 
 ALA202  GLN203  PHE205  THR206  PHE209  PHE210  VAL228  ILE341  ILE343  VAL344 
 ILE345  GLU346  ASP347  TYR348  VAL349  GLN350  HIS351  LEU352  SER353  GLY354 
 TYR355  PHE357  LEU359  LYS360  GLU380  PHE381  ASN382  THR383  LEU384  TYR385 
 HIS386  TRP387  LEU390  VAL434  LEU507  ARG513  ALA516  ILE517  PHE518  GLY519 
 GLU520  THR521  MET522  VAL523  GLU524  VAL525  GLY526  ALA527  PRO528  PHE529 
 SER530  LEU531  LYS532  GLY533  LEU534  MET535  COH609 

> <Gold.Protein.RotatedAtoms>
   17.9027    7.7406    3.1132 H   0  0  0  0  0  0  0  0  0  0  0  0  # atno 1366 bound_to 1361
    4.4840   -8.8373    7.0593 H   0  0  0  0  0  0  0  0  0  0  0  0  # atno 2556 bound_to 2551
   -4.0488    0.1391    1.0818 H   0  0  0  0  0  0  0  0  0  0  0  0  # atno 2749 bound_to 2745
    1.8263   -1.4834    3.6805 H   0  0  0  0  0  0  0  0  0  0  0  0  # atno 5077 bound_to 5068
   12.3008   -1.3436    9.2265 H   0  0  0  0  0  0  0  0  0  0  0  0  # atno 5157 bound_to 5152
   16.1117   -1.0701    4.7126 H   0  0  0  0  0  0  0  0  0  0  0  0  # atno 5185 bound_to 5176
    2.4384    0.4414    2.4548 H   0  0  0  0  0  0  0  0  0  0  0  0  # atno 5712 bound_to 5703
    5.2415    3.7401    3.3659 H   0  0  0  0  0  0  0  0  0  0  0  0  # atno 8036 bound_to 8031
    0.4830   -1.9735    4.1461 LP  0  0  0  0  0  0  0  0  0  0  0  0  # atno 8267 bound_to 5068
    1.8144   -2.9188    4.1286 LP  0  0  0  0  0  0  0  0  0  0  0  0  # atno 8268 bound_to 5068
   12.8590   -2.7412    9.2066 LP  0  0  0  0  0  0  0  0  0  0  0  0  # atno 8279 bound_to 5152
   11.2627   -2.4267    9.3460 LP  0  0  0  0  0  0  0  0  0  0  0  0  # atno 8280 bound_to 5152
   16.4071    0.3478    5.1139 LP  0  0  0  0  0  0  0  0  0  0  0  0  # atno 8281 bound_to 5176
   14.9023   -0.1792    4.7610 LP  0  0  0  0  0  0  0  0  0  0  0  0  # atno 8282 bound_to 5176
    2.9927   -0.9536    2.5291 LP  0  0  0  0  0  0  0  0  0  0  0  0  # atno 8283 bound_to 5703
    1.4522   -0.5886    2.9295 LP  0  0  0  0  0  0  0  0  0  0  0  0  # atno 8284 bound_to 5703
    4.9430    5.2118    3.2979 LP  0  0  0  0  0  0  0  0  0  0  0  0  # atno 8309 bound_to 8031
    6.3800    4.6206    3.8000 LP  0  0  0  0  0  0  0  0  0  0  0  0  # atno 8310 bound_to 8031
   -2.7683   -0.6312    0.9073 LP  0  0  0  0  0  0  0  0  0  0  0  0  # atno 8323 bound_to 2745
   -3.5936    0.0118   -0.3465 LP  0  0  0  0  0  0  0  0  0  0  0  0  # atno 8324 bound_to 2745
   18.9099    6.6311    2.9772 LP  0  0  0  0  0  0  0  0  0  0  0  0  # atno 8335 bound_to 1361
   17.8719    7.0369    1.7836 LP  0  0  0  0  0  0  0  0  0  0  0  0  # atno 8336 bound_to 1361
    5.1175  -10.1798    6.8130 LP  0  0  0  0  0  0  0  0  0  0  0  0  # atno 8342 bound_to 2551
    5.0488   -9.4903    8.2917 LP  0  0  0  0  0  0  0  0  0  0  0  0  # atno 8343 bound_to 2551

