
130|LMW3_p|sdf|130|dock6
  -GOLD-   6 922 5323D 1   1.00000     0.00000

 81 84  0  0  0  0  0  0  0  0  1 V2000
   18.6897    0.0659    3.9215 O   0  0  0  0  0  0  0  0  0  0  0  0
   18.3795    1.1364    3.3938 C   0  0  0  0  0  0  0  0  0  0  0  0
   18.8020    1.4064    1.9751 C   0  0  0  0  0  0  0  0  0  0  0  0
   17.6088    2.2016    4.1587 C   0  0  0  0  0  0  0  0  0  0  0  0
   18.6170    0.5173    0.9862 C   0  0  0  0  0  0  0  0  0  0  0  0
   19.4330    2.7473    1.7355 C   0  0  0  0  0  0  0  0  0  0  0  0
   16.2248    1.6885    4.5835 C   0  0  1  0  0  0  0  0  0  0  0  0
   16.3852    0.5405    5.4177 O   0  0  0  0  0  0  0  0  0  0  0  0
   15.3726    2.7478    5.3297 C   0  0  1  0  0  0  0  0  0  0  0  0
   13.9090    2.2787    5.6188 C   0  0  2  0  0  0  0  0  0  0  0  0
   16.0510    3.1550    6.6555 C   0  0  0  0  0  0  0  0  0  0  0  0
   13.0433    1.6489    4.4817 C   0  0  2  0  0  0  0  0  0  0  0  0
   13.0121    3.4596    6.1059 C   0  0  0  0  0  0  0  0  0  0  0  0
   11.5905    1.7675    5.0862 C   0  0  1  0  0  0  0  0  0  0  0  0
   13.2759    0.1654    4.1684 C   0  0  0  0  0  0  0  0  0  0  0  0
   13.2331    2.4755    3.1712 C   0  0  0  0  0  0  0  0  0  0  0  0
   11.5958    3.2319    5.5503 C   0  0  0  0  0  0  0  0  0  0  0  0
   10.5471    1.3230    4.0658 C   0  0  0  0  0  0  0  0  0  0  0  0
   11.3228    0.8878    6.3479 C   0  0  0  0  0  0  0  0  0  0  0  0
   12.1857   -0.4037    3.2344 C   0  0  0  0  0  0  0  0  0  0  0  0
   10.8155    0.2832    3.2339 C   0  0  0  0  0  0  0  0  0  0  0  0
    9.2191    2.0431    4.0947 C   0  0  0  0  0  0  0  0  0  0  0  0
    9.7691   -0.2269    2.2048 C   0  0  2  0  0  0  0  0  0  0  0  0
    8.2067    1.6041    3.0360 C   0  0  0  0  0  0  0  0  0  0  0  0
    8.3256    0.0990    2.7476 C   0  0  1  0  0  0  0  0  0  0  0  0
    9.8646   -1.7606    2.0047 C   0  0  0  0  0  0  0  0  0  0  0  0
   10.1269    0.4802    0.8756 C   0  0  0  0  0  0  0  0  0  0  0  0
    7.1073   -0.5172    1.9595 C   0  0  0  0  0  0  0  0  0  0  0  0
    8.7459   -2.3313    1.1419 C   0  0  0  0  0  0  0  0  0  0  0  0
    7.3699   -2.0349    1.7277 C   0  0  2  0  0  0  0  0  0  0  0  0
    6.7800    0.2020    0.6343 C   0  0  0  0  0  0  0  0  0  0  0  0
    5.8261   -0.3941    2.8347 C   0  0  0  0  0  0  0  0  0  0  0  0
    6.4043   -2.6119    0.8495 O   0  0  0  0  0  0  0  0  0  0  0  0
   17.4855    3.0604    3.5325 H   0  0  0  0  0  0  0  0  0  0  0  0
   18.1618    2.4531    5.0395 H   0  0  0  0  0  0  0  0  0  0  0  0
   18.1797   -0.3955    1.1880 H   0  0  0  0  0  0  0  0  0  0  0  0
   18.9121    0.7466    0.0242 H   0  0  0  0  0  0  0  0  0  0  0  0
   20.2147    2.6494    1.0115 H   0  0  0  0  0  0  0  0  0  0  0  0
   19.8406    3.1187    2.6525 H   0  0  0  0  0  0  0  0  0  0  0  0
   18.6934    3.4296    1.3718 H   0  0  0  0  0  0  0  0  0  0  0  0
   15.6964    1.4456    3.6852 H   0  0  0  0  0  0  0  0  0  0  0  0
   17.1708    0.6533    5.9753 H   0  0  0  0  0  0  0  0  0  0  0  0
   15.3106    3.5893    4.6716 H   0  0  0  0  0  0  0  0  0  0  0  0
   14.1365    1.5092    6.3266 H   0  0  0  0  0  0  0  0  0  0  0  0
   16.4683    2.2880    7.1237 H   0  0  0  0  0  0  0  0  0  0  0  0
   15.3258    3.5975    7.3060 H   0  0  0  0  0  0  0  0  0  0  0  0
   16.8292    3.8617    6.4556 H   0  0  0  0  0  0  0  0  0  0  0  0
   13.4016    4.3873    5.7417 H   0  0  0  0  0  0  0  0  0  0  0  0
   12.9931    3.4993    7.1750 H   0  0  0  0  0  0  0  0  0  0  0  0
   13.2692   -0.3870    5.0847 H   0  0  0  0  0  0  0  0  0  0  0  0
   14.2189    0.0754    3.6707 H   0  0  0  0  0  0  0  0  0  0  0  0
   13.5506    3.4671    3.4178 H   0  0  0  0  0  0  0  0  0  0  0  0
   12.3054    2.5199    2.6399 H   0  0  0  0  0  0  0  0  0  0  0  0
   13.9734    2.0062    2.5576 H   0  0  0  0  0  0  0  0  0  0  0  0
   11.4027    3.8891    4.7282 H   0  0  0  0  0  0  0  0  0  0  0  0
   10.8380    3.4286    6.2797 H   0  0  0  0  0  0  0  0  0  0  0  0
   10.6524    0.0937    6.0932 H   0  0  0  0  0  0  0  0  0  0  0  0
   10.8862    1.4904    7.1168 H   0  0  0  0  0  0  0  0  0  0  0  0
   12.2463    0.4764    6.6983 H   0  0  0  0  0  0  0  0  0  0  0  0
   12.0302   -1.4256    3.5108 H   0  0  0  0  0  0  0  0  0  0  0  0
   12.5668   -0.2453    2.2473 H   0  0  0  0  0  0  0  0  0  0  0  0
    9.4077    3.0873    3.9571 H   0  0  0  0  0  0  0  0  0  0  0  0
    8.7771    1.8043    5.0394 H   0  0  0  0  0  0  0  0  0  0  0  0
    8.3874    2.1485    2.1327 H   0  0  0  0  0  0  0  0  0  0  0  0
    7.2219    1.8031    3.4042 H   0  0  0  0  0  0  0  0  0  0  0  0
    8.2335   -0.4365    3.6693 H   0  0  0  0  0  0  0  0  0  0  0  0
    9.8251   -2.2306    2.9651 H   0  0  0  0  0  0  0  0  0  0  0  0
   10.7853   -1.9551    1.4955 H   0  0  0  0  0  0  0  0  0  0  0  0
    9.3719    1.2011    0.6406 H   0  0  0  0  0  0  0  0  0  0  0  0
   10.1850   -0.2444    0.0904 H   0  0  0  0  0  0  0  0  0  0  0  0
   11.0713    0.9729    0.9767 H   0  0  0  0  0  0  0  0  0  0  0  0
    8.8705   -3.3917    1.0705 H   0  0  0  0  0  0  0  0  0  0  0  0
    8.8025   -1.8710    0.1777 H   0  0  0  0  0  0  0  0  0  0  0  0
    7.3041   -2.4661    2.7047 H   0  0  0  0  0  0  0  0  0  0  0  0
    6.7390    1.2579    0.8022 H   0  0  0  0  0  0  0  0  0  0  0  0
    5.8338   -0.1380    0.2683 H   0  0  0  0  0  0  0  0  0  0  0  0
    7.5402   -0.0154   -0.0866 H   0  0  0  0  0  0  0  0  0  0  0  0
    5.1195   -1.1415    2.5396 H   0  0  0  0  0  0  0  0  0  0  0  0
    5.3953    0.5763    2.7019 H   0  0  0  0  0  0  0  0  0  0  0  0
    6.0827   -0.5326    3.8642 H   0  0  0  0  0  0  0  0  0  0  0  0
    6.5802   -2.3225   -0.0594 H   0  0  0  0  0  0  0  0  0  0  0  0
  1  2  2  0  0  0  0
  2  3  1  0  0  0  0
  2  4  1  0  0  0  0
  3  5  2  0  0  0  0
  3  6  1  0  0  0  0
  4  7  1  0  0  0  0
  4 34  1  0  0  0  0
  4 35  1  0  0  0  0
  5 36  1  0  0  0  0
  5 37  1  0  0  0  0
  6 38  1  0  0  0  0
  6 39  1  0  0  0  0
  6 40  1  0  0  0  0
  7  8  1  0  0  0  0
  7  9  1  0  0  0  0
  7 41  1  0  0  0  0
  8 42  1  0  0  0  0
  9 10  1  0  0  0  0
  9 11  1  0  0  0  0
  9 43  1  0  0  0  0
 10 12  1  0  0  0  0
 10 13  1  0  0  0  0
 10 44  1  0  0  0  0
 11 45  1  0  0  0  0
 11 46  1  0  0  0  0
 11 47  1  0  0  0  0
 12 14  1  0  0  0  0
 12 15  1  0  0  0  0
 12 16  1  0  0  0  0
 13 17  1  0  0  0  0
 13 48  1  0  0  0  0
 13 49  1  0  0  0  0
 14 18  1  0  0  0  0
 14 19  1  0  0  0  0
 14 17  1  0  0  0  0
 15 20  1  0  0  0  0
 15 50  1  0  0  0  0
 15 51  1  0  0  0  0
 16 52  1  0  0  0  0
 16 53  1  0  0  0  0
 16 54  1  0  0  0  0
 17 55  1  0  0  0  0
 17 56  1  0  0  0  0
 18 21  2  0  0  0  0
 18 22  1  0  0  0  0
 19 57  1  0  0  0  0
 19 58  1  0  0  0  0
 19 59  1  0  0  0  0
 20 21  1  0  0  0  0
 20 60  1  0  0  0  0
 20 61  1  0  0  0  0
 21 23  1  0  0  0  0
 22 24  1  0  0  0  0
 22 62  1  0  0  0  0
 22 63  1  0  0  0  0
 23 25  1  0  0  0  0
 23 26  1  0  0  0  0
 23 27  1  0  0  0  0
 24 25  1  0  0  0  0
 24 64  1  0  0  0  0
 24 65  1  0  0  0  0
 25 28  1  0  0  0  0
 25 66  1  0  0  0  0
 26 29  1  0  0  0  0
 26 67  1  0  0  0  0
 26 68  1  0  0  0  0
 27 69  1  0  0  0  0
 27 70  1  0  0  0  0
 27 71  1  0  0  0  0
 28 30  1  0  0  0  0
 28 31  1  0  0  0  0
 28 32  1  0  0  0  0
 29 30  1  0  0  0  0
 29 72  1  0  0  0  0
 29 73  1  0  0  0  0
 30 33  1  0  0  0  0
 30 74  1  0  0  0  0
 31 75  1  0  0  0  0
 31 76  1  0  0  0  0
 31 77  1  0  0  0  0
 32 78  1  0  0  0  0
 32 79  1  0  0  0  0
 32 80  1  0  0  0  0
 33 81  1  0  0  0  0
M  END
>  <Code-name>
130

>  <Compound>
Inonotusol G

>  <Specie>
Inonotus obliquus

>  <Reference>
GrÃ¼ndemann (2020)

>  <Organism>
Antitumoral Activity

>  <Smiles>
C[C@@H]([C@@H](CC(C(C)=C)=O)O)[C@@H](CC1)[C@@](C)(CC2)[C@]1(C)C(CC1)=C2[C@@](C)(CC2)[C@@H]1C(C)(C)[C@H]2O

>  <MMFF94 Energy>
131.04

>  <Total Molweight>
456.708

>  <Molweight>
456.708

>  <Monoisotopic Mass>
456.360345

>  <cLogP>
6.4135

>  <cLogS>
-5.873

>  <H-Acceptors>
3

>  <H-Donors>
2

>  <Total Surface Area>
349.42

>  <Relative PSA>
0.1123

>  <Polar Surface Area>
57.53

>  <Druglikeness>
-18.184

>  <Mutagenic>
none

>  <Tumorigenic>
none

>  <Reproductive Effective>
high

>  <Irritant>
low

>  <Nasty Functions>


>  <Shape Index>
0.48485

>  <Molecular Flexibility>
0.32117

>  <Molecular Complexity>
1.0031

>  <Fragments>
1

>  <Non-H Atoms>
33

>  <Non-C/H Atoms>
3

>  <Metal-Atoms>
0

>  <Electronegative Atoms>
3

>  <Stereo Centers>
8

>  <Rotatable Bonds>
5

>  <Rings Closures>
4

>  <Small Rings>
4

>  <Aromatic Rings>
0

>  <Aromatic Atoms>
0

>  <sp3-Atoms>
27

>  <Symmetric atoms>
1

>  <Amides>
0

>  <Amines>
0

>  <Alkyl-Amines>
0

>  <Aromatic Amines>
0

>  <Aromatic Nitrogens>
0

>  <Basic Nitrogens>
0

>  <Acidic Oxygens>
0

>  <Stereo Configuration>
this enantiomer

> <Gold.Version>
5.8.1

> <Gold.Id.Protein>
ID_2|Prot_COX2_5IKQ_Alig|mol2

> <Gold.Goldscore.Fitness>
-80.7816

> <Gold.Goldscore.Internal.Vdw>
-36.0348

> <Gold.Goldscore.Internal.Torsion>
-15.2832

> <Gold.Goldscore.External.Vdw>
-43.6929

> <Gold.Goldscore.Internal.HBond>
0.0000

> <Gold.Goldscore.External.HBond>
0.0000

> <Gold.Goldscore.Internal.Correction>
-30.6142

> <Gold.Goldscore.Internal.Vdw.Weighted>
-36.0348

> <Gold.Goldscore.Internal.Torsion.Weighted>
-15.2832

> <Gold.Goldscore.External.Vdw.Weighted>
-60.0778

> <Gold.Goldscore.Internal.HBond.Weighted>
0.0000

> <Gold.Goldscore.External.HBond.Weighted>
0.0000

> <Gold.Goldscore.Internal.Correction.Weighted>
-30.6142

> <Gold.Protein.RotatedTorsions>
[ 5077 5068 5067 5065 ] final -114.21 input  179.94 | X-H torsion
[ 5157 5152 5151 5148 ] final -114.18 input -179.92 | X-H torsion
[ 5185 5176 5175 5173 ] final   19.15 input -179.99 | X-H torsion
[ 5712 5703 5702 5700 ] final -175.08 input  180.00 | X-H torsion
[ 8036 8031 8030 8027 ] final  138.00 input -179.94 | X-H torsion
[ 2749 2745 2743 2740 ] final   -4.27 input  -60.05 | X-H torsion
[ 1366 1361 1360 1357 ] final  116.30 input  -60.09 | X-H torsion
[ 2556 2551 2550 2547 ] final   83.52 input   59.97 | X-H torsion

> <Gold.Protein.ActiveResidues>
 PRO86   VAL89   HIS90   LEU93   THR94   ILE112  MET113  TYR115  VAL116  LEU117 
 THR118  SER119  ARG120  SER121  LEU123  ILE124  GLN192  SER194  PHE198  PHE201 
 ALA202  GLN203  PHE205  THR206  PHE209  PHE210  VAL228  ILE341  ILE343  VAL344 
 ILE345  GLU346  ASP347  TYR348  VAL349  GLN350  HIS351  LEU352  SER353  GLY354 
 TYR355  PHE357  LEU359  LYS360  GLU380  PHE381  ASN382  THR383  LEU384  TYR385 
 HIS386  TRP387  LEU390  VAL434  LEU507  ARG513  ALA516  ILE517  PHE518  GLY519 
 GLU520  THR521  MET522  VAL523  GLU524  VAL525  GLY526  ALA527  PRO528  PHE529 
 SER530  LEU531  LYS532  GLY533  LEU534  MET535  COH609 

> <Gold.Protein.RotatedAtoms>
   18.5221    6.6559    2.1456 H   0  0  0  0  0  0  0  0  0  0  0  0  # atno 1366 bound_to 1361
    5.1103  -10.1640    7.1055 H   0  0  0  0  0  0  0  0  0  0  0  0  # atno 2556 bound_to 2551
   -4.0939    0.1755    1.0030 H   0  0  0  0  0  0  0  0  0  0  0  0  # atno 2749 bound_to 2745
    2.1343   -2.3774    3.9094 H   0  0  0  0  0  0  0  0  0  0  0  0  # atno 5077 bound_to 5068
   11.5689   -1.5843    9.2857 H   0  0  0  0  0  0  0  0  0  0  0  0  # atno 5157 bound_to 5152
   15.7936   -1.1120    4.6580 H   0  0  0  0  0  0  0  0  0  0  0  0  # atno 5185 bound_to 5176
    2.6720    0.3430    2.3999 H   0  0  0  0  0  0  0  0  0  0  0  0  # atno 5712 bound_to 5703
    5.2413    3.7402    3.3658 H   0  0  0  0  0  0  0  0  0  0  0  0  # atno 8036 bound_to 8031
    1.2229   -1.2017    3.6890 LP  0  0  0  0  0  0  0  0  0  0  0  0  # atno 8267 bound_to 5068
    0.7057   -2.6200    4.3116 LP  0  0  0  0  0  0  0  0  0  0  0  0  # atno 8268 bound_to 5068
   13.0498   -1.8391    9.2013 LP  0  0  0  0  0  0  0  0  0  0  0  0  # atno 8279 bound_to 5152
   11.9472   -3.0410    9.2804 LP  0  0  0  0  0  0  0  0  0  0  0  0  # atno 8280 bound_to 5152
   16.6549    0.0515    5.0618 LP  0  0  0  0  0  0  0  0  0  0  0  0  # atno 8281 bound_to 5176
   15.0364    0.1674    4.8786 LP  0  0  0  0  0  0  0  0  0  0  0  0  # atno 8282 bound_to 5176
    2.7628   -1.1407    2.6216 LP  0  0  0  0  0  0  0  0  0  0  0  0  # atno 8283 bound_to 5703
    1.4018   -0.2834    2.9028 LP  0  0  0  0  0  0  0  0  0  0  0  0  # atno 8284 bound_to 5703
    4.9432    5.2120    3.2980 LP  0  0  0  0  0  0  0  0  0  0  0  0  # atno 8309 bound_to 8031
    6.3801    4.6203    3.8000 LP  0  0  0  0  0  0  0  0  0  0  0  0  # atno 8310 bound_to 8031
   -2.8156   -0.6177    1.0133 LP  0  0  0  0  0  0  0  0  0  0  0  0  # atno 8323 bound_to 2745
   -3.4923   -0.0454   -0.3582 LP  0  0  0  0  0  0  0  0  0  0  0  0  # atno 8324 bound_to 2745
   17.4836    7.7169    2.3903 LP  0  0  0  0  0  0  0  0  0  0  0  0  # atno 8335 bound_to 1361
   18.5573    7.2487    3.5281 LP  0  0  0  0  0  0  0  0  0  0  0  0  # atno 8336 bound_to 1361
    4.9327   -9.2444    8.2832 LP  0  0  0  0  0  0  0  0  0  0  0  0  # atno 8342 bound_to 2551
    4.4842   -8.8384    6.7664 LP  0  0  0  0  0  0  0  0  0  0  0  0  # atno 8343 bound_to 2551

