
131|LMW3_p|sdf|131|dock2
  -GOLD-   6 922 5333D 1   1.00000     0.00000

 83 86  0  0  0  0  0  0  0  0  1 V2000
    9.5363    2.6520    5.1048 O   0  0  0  0  0  0  0  0  0  0  0  0
   10.2242    1.6323    5.0167 C   0  0  0  0  0  0  0  0  0  0  0  0
    9.8602    0.4462    4.0594 C   0  0  2  0  0  0  0  0  0  0  0  0
   11.5834    1.5856    5.7284 C   0  0  1  0  0  0  0  0  0  0  0  0
    8.4771    0.6752    3.2705 C   0  0  2  0  0  0  0  0  0  0  0  0
    9.5535   -0.9340    4.7272 C   0  0  1  0  0  0  0  0  0  0  0  0
   11.1103    0.2297    3.1177 C   0  0  0  0  0  0  0  0  0  0  0  0
   12.6835    1.5748    4.6126 C   0  0  2  0  0  0  0  0  0  0  0  0
   11.9866    2.8394    6.5181 C   0  0  0  0  0  0  0  0  0  0  0  0
   11.6056    0.4248    6.7522 C   0  0  0  0  0  0  0  0  0  0  0  0
    8.3031   -0.7243    2.6194 C   0  0  1  0  0  0  0  0  0  0  0  0
    8.4862    1.7338    2.1471 C   0  0  0  0  0  0  0  0  0  0  0  0
    7.2965    0.9878    4.2494 C   0  0  0  0  0  0  0  0  0  0  0  0
    8.9201   -0.7802    5.9895 O   0  0  0  0  0  0  0  0  0  0  0  0
    8.5955   -1.6981    3.7684 C   0  0  0  0  0  0  0  0  0  0  0  0
   12.5013    0.2839    3.7975 C   0  0  0  0  0  0  0  0  0  0  0  0
   13.9742    1.7290    5.4737 C   0  0  2  0  0  0  0  0  0  0  0  0
   12.5852    2.7931    3.6354 C   0  0  0  0  0  0  0  0  0  0  0  0
   13.5279    2.7866    6.5380 C   0  0  0  0  0  0  0  0  0  0  0  0
    7.0702   -0.9438    1.7005 C   0  0  0  0  0  0  0  0  0  0  0  0
    7.2792    1.6062    1.2010 C   0  0  0  0  0  0  0  0  0  0  0  0
   15.3264    2.1240    4.8042 C   0  0  1  0  0  0  0  0  0  0  0  0
    7.1069    0.1905    0.6261 C   0  0  2  0  0  0  0  0  0  0  0  0
    7.2273   -2.3088    0.9818 C   0  0  0  0  0  0  0  0  0  0  0  0
    5.7101   -1.0027    2.4212 C   0  0  0  0  0  0  0  0  0  0  0  0
   16.4351    2.2581    5.8846 C   0  0  0  0  0  0  0  0  0  0  0  0
   15.7574    1.1219    3.7289 C   0  0  0  0  0  0  0  0  0  0  0  0
    5.9499    0.1549   -0.2066 O   0  0  0  0  0  0  0  0  0  0  0  0
   17.5680    3.2165    5.4974 C   0  0  0  0  0  0  0  0  0  0  0  0
   18.3887    2.6542    4.3681 C   0  0  0  0  0  0  0  0  0  0  0  0
   18.6989    3.2511    3.2008 C   0  0  0  0  0  0  0  0  0  0  0  0
   18.3098    4.6519    2.8162 C   0  0  0  0  0  0  0  0  0  0  0  0
   19.5083    2.5247    2.1582 C   0  0  0  0  0  0  0  0  0  0  0  0
   10.4691   -1.4630    4.8908 H   0  0  0  0  0  0  0  0  0  0  0  0
   11.0860    0.9892    2.3644 H   0  0  0  0  0  0  0  0  0  0  0  0
   11.0151   -0.7681    2.7433 H   0  0  0  0  0  0  0  0  0  0  0  0
   11.5918    2.8064    7.5121 H   0  0  0  0  0  0  0  0  0  0  0  0
   11.6105    3.7407    6.0809 H   0  0  0  0  0  0  0  0  0  0  0  0
   11.5873   -0.5100    6.2319 H   0  0  0  0  0  0  0  0  0  0  0  0
   10.7491    0.4950    7.3896 H   0  0  0  0  0  0  0  0  0  0  0  0
   12.4957    0.4869    7.3427 H   0  0  0  0  0  0  0  0  0  0  0  0
    8.9878   -0.8984    1.8158 H   0  0  0  0  0  0  0  0  0  0  0  0
    9.3831    1.6182    1.5752 H   0  0  0  0  0  0  0  0  0  0  0  0
    8.4335    2.6969    2.6101 H   0  0  0  0  0  0  0  0  0  0  0  0
    7.4818    1.9171    4.7464 H   0  0  0  0  0  0  0  0  0  0  0  0
    7.2177    0.2050    4.9746 H   0  0  0  0  0  0  0  0  0  0  0  0
    6.3830    1.0550    3.6964 H   0  0  0  0  0  0  0  0  0  0  0  0
    8.9667   -1.6165    6.4788 H   0  0  0  0  0  0  0  0  0  0  0  0
    7.6907   -1.9610    4.2752 H   0  0  0  0  0  0  0  0  0  0  0  0
    9.0311   -2.6094    3.4153 H   0  0  0  0  0  0  0  0  0  0  0  0
   13.2585    0.2401    3.0429 H   0  0  0  0  0  0  0  0  0  0  0  0
   12.5793   -0.5477    4.4663 H   0  0  0  0  0  0  0  0  0  0  0  0
   14.2612    0.7602    5.8259 H   0  0  0  0  0  0  0  0  0  0  0  0
   13.1046    2.5654    2.7280 H   0  0  0  0  0  0  0  0  0  0  0  0
   13.0269    3.6538    4.0928 H   0  0  0  0  0  0  0  0  0  0  0  0
   11.5570    2.9933    3.4171 H   0  0  0  0  0  0  0  0  0  0  0  0
   13.8713    2.4958    7.5088 H   0  0  0  0  0  0  0  0  0  0  0  0
   13.9416    3.7472    6.3124 H   0  0  0  0  0  0  0  0  0  0  0  0
    7.4104    2.2896    0.3883 H   0  0  0  0  0  0  0  0  0  0  0  0
    6.4022    1.8257    1.7733 H   0  0  0  0  0  0  0  0  0  0  0  0
   15.1796    3.0664    4.3192 H   0  0  0  0  0  0  0  0  0  0  0  0
    7.9830   -0.0154    0.0473 H   0  0  0  0  0  0  0  0  0  0  0  0
    6.3998   -2.4610    0.3207 H   0  0  0  0  0  0  0  0  0  0  0  0
    7.2524   -3.0937    1.7085 H   0  0  0  0  0  0  0  0  0  0  0  0
    8.1380   -2.3134    0.4202 H   0  0  0  0  0  0  0  0  0  0  0  0
    5.1679   -1.8637    2.0901 H   0  0  0  0  0  0  0  0  0  0  0  0
    5.1490   -0.1197    2.1968 H   0  0  0  0  0  0  0  0  0  0  0  0
    5.8686   -1.0655    3.4776 H   0  0  0  0  0  0  0  0  0  0  0  0
   16.8569    1.2899    6.0564 H   0  0  0  0  0  0  0  0  0  0  0  0
   15.9696    2.6645    6.7583 H   0  0  0  0  0  0  0  0  0  0  0  0
   15.2796    0.1810    3.9062 H   0  0  0  0  0  0  0  0  0  0  0  0
   16.8192    0.9950    3.7647 H   0  0  0  0  0  0  0  0  0  0  0  0
   15.4745    1.4896    2.7648 H   0  0  0  0  0  0  0  0  0  0  0  0
    6.0549    0.7887   -0.9334 H   0  0  0  0  0  0  0  0  0  0  0  0
   18.2007    3.3713    6.3463 H   0  0  0  0  0  0  0  0  0  0  0  0
   17.1368    4.1419    5.1771 H   0  0  0  0  0  0  0  0  0  0  0  0
   18.7570    1.6998    4.5038 H   0  0  0  0  0  0  0  0  0  0  0  0
   18.9160    4.9783    1.9971 H   0  0  0  0  0  0  0  0  0  0  0  0
   18.4566    5.3047    3.6511 H   0  0  0  0  0  0  0  0  0  0  0  0
   17.2798    4.6692    2.5268 H   0  0  0  0  0  0  0  0  0  0  0  0
   19.0338    2.6250    1.2046 H   0  0  0  0  0  0  0  0  0  0  0  0
   19.5748    1.4885    2.4164 H   0  0  0  0  0  0  0  0  0  0  0  0
   20.4913    2.9449    2.1134 H   0  0  0  0  0  0  0  0  0  0  0  0
  1  2  2  0  0  0  0
  2  4  1  0  0  0  0
  3  2  1  0  0  0  0
  3  5  1  0  0  0  0
  3  6  1  0  0  0  0
  3  7  1  0  0  0  0
  4  8  1  0  0  0  0
  4  9  1  0  0  0  0
  4 10  1  0  0  0  0
  5 11  1  0  0  0  0
  5 12  1  0  0  0  0
  5 13  1  0  0  0  0
  6 14  1  0  0  0  0
  6 15  1  0  0  0  0
  6 34  1  0  0  0  0
  7 16  1  0  0  0  0
  7 35  1  0  0  0  0
  7 36  1  0  0  0  0
  8 17  1  0  0  0  0
  8 18  1  0  0  0  0
  8 16  1  0  0  0  0
  9 19  1  0  0  0  0
  9 37  1  0  0  0  0
  9 38  1  0  0  0  0
 10 39  1  0  0  0  0
 10 40  1  0  0  0  0
 10 41  1  0  0  0  0
 11 20  1  0  0  0  0
 11 15  1  0  0  0  0
 11 42  1  0  0  0  0
 12 21  1  0  0  0  0
 12 43  1  0  0  0  0
 12 44  1  0  0  0  0
 13 45  1  0  0  0  0
 13 46  1  0  0  0  0
 13 47  1  0  0  0  0
 14 48  1  0  0  0  0
 15 49  1  0  0  0  0
 15 50  1  0  0  0  0
 16 51  1  0  0  0  0
 16 52  1  0  0  0  0
 17 22  1  0  0  0  0
 17 19  1  0  0  0  0
 17 53  1  0  0  0  0
 18 54  1  0  0  0  0
 18 55  1  0  0  0  0
 18 56  1  0  0  0  0
 19 57  1  0  0  0  0
 19 58  1  0  0  0  0
 20 23  1  0  0  0  0
 20 24  1  0  0  0  0
 20 25  1  0  0  0  0
 21 23  1  0  0  0  0
 21 59  1  0  0  0  0
 21 60  1  0  0  0  0
 22 26  1  0  0  0  0
 22 27  1  0  0  0  0
 22 61  1  0  0  0  0
 23 28  1  0  0  0  0
 23 62  1  0  0  0  0
 24 63  1  0  0  0  0
 24 64  1  0  0  0  0
 24 65  1  0  0  0  0
 25 66  1  0  0  0  0
 25 67  1  0  0  0  0
 25 68  1  0  0  0  0
 26 29  1  0  0  0  0
 26 69  1  0  0  0  0
 26 70  1  0  0  0  0
 27 71  1  0  0  0  0
 27 72  1  0  0  0  0
 27 73  1  0  0  0  0
 28 74  1  0  0  0  0
 29 30  1  0  0  0  0
 29 75  1  0  0  0  0
 29 76  1  0  0  0  0
 30 31  2  0  0  0  0
 30 77  1  0  0  0  0
 31 32  1  0  0  0  0
 31 33  1  0  0  0  0
 32 78  1  0  0  0  0
 32 79  1  0  0  0  0
 32 80  1  0  0  0  0
 33 81  1  0  0  0  0
 33 82  1  0  0  0  0
 33 83  1  0  0  0  0
M  END
>  <Code-name>
131

>  <Compound>
spiroinonotsuoxodiol

>  <Specie>
Inonotus obliquus

>  <Reference>
GrÃ¼ndemann (2020)

>  <Organism>
Antitumoral Activity

>  <Smiles>
C[C@H](CCC=C(C)C)[C@@H](CC1)[C@@](C)(CC[C@]2([C@H](C3)O)[C@@](C)(CC4)[C@@H]3C(C)(C)[C@H]4O)[C@]1(C)C2=O

>  <MMFF94 Energy>
160.28

>  <Total Molweight>
458.724

>  <Molweight>
458.724

>  <Monoisotopic Mass>
458.375995

>  <cLogP>
6.8569

>  <cLogS>
-6.023

>  <H-Acceptors>
3

>  <H-Donors>
2

>  <Total Surface Area>
351.13

>  <Relative PSA>
0.11175

>  <Polar Surface Area>
57.53

>  <Druglikeness>
-3.3082

>  <Mutagenic>
none

>  <Tumorigenic>
none

>  <Reproductive Effective>
none

>  <Irritant>
high

>  <Nasty Functions>


>  <Shape Index>
0.48485

>  <Molecular Flexibility>
0.28275

>  <Molecular Complexity>
0.98054

>  <Fragments>
1

>  <Non-H Atoms>
33

>  <Non-C/H Atoms>
3

>  <Metal-Atoms>
0

>  <Electronegative Atoms>
3

>  <Stereo Centers>
9

>  <Rotatable Bonds>
4

>  <Rings Closures>
4

>  <Small Rings>
4

>  <Aromatic Rings>
0

>  <Aromatic Atoms>
0

>  <sp3-Atoms>
29

>  <Symmetric atoms>
2

>  <Amides>
0

>  <Amines>
0

>  <Alkyl-Amines>
0

>  <Aromatic Amines>
0

>  <Aromatic Nitrogens>
0

>  <Basic Nitrogens>
0

>  <Acidic Oxygens>
0

>  <Stereo Configuration>
this enantiomer

> <Gold.Version>
5.8.1

> <Gold.Id.Protein>
ID_2|Prot_COX2_5IKQ_Alig|mol2

> <Gold.Goldscore.Fitness>
-63.0203

> <Gold.Goldscore.Internal.Vdw>
-41.6125

> <Gold.Goldscore.Internal.Torsion>
-9.3660

> <Gold.Goldscore.External.Vdw>
-40.8928

> <Gold.Goldscore.Internal.HBond>
0.0000

> <Gold.Goldscore.External.HBond>
0.0000

> <Gold.Goldscore.Internal.Correction>
-44.1857

> <Gold.Goldscore.Internal.Vdw.Weighted>
-41.6125

> <Gold.Goldscore.Internal.Torsion.Weighted>
-9.3660

> <Gold.Goldscore.External.Vdw.Weighted>
-56.2275

> <Gold.Goldscore.Internal.HBond.Weighted>
0.0000

> <Gold.Goldscore.External.HBond.Weighted>
0.0000

> <Gold.Goldscore.Internal.Correction.Weighted>
-44.1857

> <Gold.Protein.RotatedTorsions>
[ 5077 5068 5067 5065 ] final  179.10 input  179.94 | X-H torsion
[ 5157 5152 5151 5148 ] final -121.46 input -179.92 | X-H torsion
[ 5185 5176 5175 5173 ] final  -32.03 input -179.99 | X-H torsion
[ 5712 5703 5702 5700 ] final -173.61 input  180.00 | X-H torsion
[ 8036 8031 8030 8027 ] final -157.39 input -179.94 | X-H torsion
[ 2749 2745 2743 2740 ] final  -36.36 input  -60.05 | X-H torsion
[ 1366 1361 1360 1357 ] final  -11.66 input  -60.09 | X-H torsion
[ 2556 2551 2550 2547 ] final  158.01 input   59.97 | X-H torsion

> <Gold.Protein.ActiveResidues>
 PRO86   VAL89   HIS90   LEU93   THR94   ILE112  MET113  TYR115  VAL116  LEU117 
 THR118  SER119  ARG120  SER121  LEU123  ILE124  GLN192  SER194  PHE198  PHE201 
 ALA202  GLN203  PHE205  THR206  PHE209  PHE210  VAL228  ILE341  ILE343  VAL344 
 ILE345  GLU346  ASP347  TYR348  VAL349  GLN350  HIS351  LEU352  SER353  GLY354 
 TYR355  PHE357  LEU359  LYS360  GLU380  PHE381  ASN382  THR383  LEU384  TYR385 
 HIS386  TRP387  LEU390  VAL434  LEU507  ARG513  ALA516  ILE517  PHE518  GLY519 
 GLU520  THR521  MET522  VAL523  GLU524  VAL525  GLY526  ALA527  PRO528  PHE529 
 SER530  LEU531  LYS532  GLY533  LEU534  MET535  COH609 

> <Gold.Protein.RotatedAtoms>
   17.6352    7.7010    2.5182 H   0  0  0  0  0  0  0  0  0  0  0  0  # atno 1366 bound_to 1361
    4.6986   -9.4685    6.5934 H   0  0  0  0  0  0  0  0  0  0  0  0  # atno 2556 bound_to 2551
   -3.8281   -0.0164    1.2914 H   0  0  0  0  0  0  0  0  0  0  0  0  # atno 2749 bound_to 2745
    1.9258   -1.5660    3.6833 H   0  0  0  0  0  0  0  0  0  0  0  0  # atno 5077 bound_to 5068
   11.6413   -1.5148    9.2804 H   0  0  0  0  0  0  0  0  0  0  0  0  # atno 5157 bound_to 5152
   16.4129   -0.8735    4.8094 H   0  0  0  0  0  0  0  0  0  0  0  0  # atno 5185 bound_to 5176
    2.6551    0.3534    2.4035 H   0  0  0  0  0  0  0  0  0  0  0  0  # atno 5712 bound_to 5703
    6.0232    3.9018    3.6354 H   0  0  0  0  0  0  0  0  0  0  0  0  # atno 8036 bound_to 8031
    0.5028   -1.8302    4.0916 LP  0  0  0  0  0  0  0  0  0  0  0  0  # atno 8267 bound_to 5068
    1.6755   -2.9632    4.1797 LP  0  0  0  0  0  0  0  0  0  0  0  0  # atno 8268 bound_to 5068
   13.0779   -1.9555    9.1975 LP  0  0  0  0  0  0  0  0  0  0  0  0  # atno 8279 bound_to 5152
   11.8325   -3.0076    9.2906 LP  0  0  0  0  0  0  0  0  0  0  0  0  # atno 8280 bound_to 5152
   16.0046    0.5401    5.1153 LP  0  0  0  0  0  0  0  0  0  0  0  0  # atno 8281 bound_to 5176
   14.9431   -0.6076    4.6434 LP  0  0  0  0  0  0  0  0  0  0  0  0  # atno 8282 bound_to 5176
    2.7827   -1.1292    2.6142 LP  0  0  0  0  0  0  0  0  0  0  0  0  # atno 8283 bound_to 5703
    1.4022   -0.3073    2.9060 LP  0  0  0  0  0  0  0  0  0  0  0  0  # atno 8284 bound_to 5703
    4.6303    4.2587    3.1968 LP  0  0  0  0  0  0  0  0  0  0  0  0  # atno 8309 bound_to 8031
    5.7548    5.3798    3.5778 LP  0  0  0  0  0  0  0  0  0  0  0  0  # atno 8310 bound_to 8031
   -2.6962   -0.6204    0.5055 LP  0  0  0  0  0  0  0  0  0  0  0  0  # atno 8323 bound_to 2745
   -3.9301    0.1873   -0.1958 LP  0  0  0  0  0  0  0  0  0  0  0  0  # atno 8324 bound_to 2745
   18.6404    7.1507    3.4932 LP  0  0  0  0  0  0  0  0  0  0  0  0  # atno 8335 bound_to 1361
   18.4614    6.5647    1.9795 LP  0  0  0  0  0  0  0  0  0  0  0  0  # atno 8336 bound_to 1361
    5.2898  -10.1994    7.7684 LP  0  0  0  0  0  0  0  0  0  0  0  0  # atno 8342 bound_to 2551
    4.6196   -8.7156    7.8938 LP  0  0  0  0  0  0  0  0  0  0  0  0  # atno 8343 bound_to 2551

