
132|LMW3_p|sdf|132|dock1
  -GOLD-   6 922 5353D 1   1.00000     0.00000

 82 85  0  0  0  0  0  0  0  0  1 V2000
    8.4349    2.4886    4.6717 O   0  0  0  0  0  0  0  0  0  0  0  0
    9.4157    2.4172    3.6373 C   0  0  2  0  0  0  0  0  0  0  0  0
    9.3307    1.0272    2.9857 C   0  0  0  0  0  0  0  0  0  0  0  0
   10.7742    2.8337    4.2560 C   0  0  0  0  0  0  0  0  0  0  0  0
   10.4211    0.2141    2.9157 C   0  0  0  0  0  0  0  0  0  0  0  0
    7.9586    0.5740    2.3944 C   0  0  2  0  0  0  0  0  0  0  0  0
   11.6016    1.6137    4.6911 C   0  0  1  0  0  0  0  0  0  0  0  0
   11.7763    0.7040    3.4173 C   0  0  1  0  0  0  0  0  0  0  0  0
   10.4063   -1.1575    2.2791 C   0  0  0  0  0  0  0  0  0  0  0  0
    8.2357   -0.4367    1.2112 C   0  0  1  0  0  0  0  0  0  0  0  0
    7.1565    1.7695    1.8165 C   0  0  0  0  0  0  0  0  0  0  0  0
    7.1673   -0.0577    3.5658 C   0  0  0  0  0  0  0  0  0  0  0  0
   13.0867    1.8780    5.0958 C   0  0  1  0  0  0  0  0  0  0  0  0
   10.8731    0.8880    5.8659 C   0  0  0  0  0  0  0  0  0  0  0  0
   12.7918   -0.3226    3.9422 C   0  0  0  0  0  0  0  0  0  0  0  0
   12.4308    1.4053    2.1840 C   0  0  0  0  0  0  0  0  0  0  0  0
    9.0587   -1.6242    1.7322 C   0  0  0  0  0  0  0  0  0  0  0  0
    7.0124   -0.8438    0.3021 C   0  0  0  0  0  0  0  0  0  0  0  0
    5.9046    1.3562    1.0526 C   0  0  0  0  0  0  0  0  0  0  0  0
   13.4297    2.4061    6.5240 C   0  0  1  0  0  0  0  0  0  0  0  0
   13.7608    0.5000    4.8094 C   0  0  0  0  0  0  0  0  0  0  0  0
    6.2471    0.4432   -0.1188 C   0  0  2  0  0  0  0  0  0  0  0  0
    6.0631   -1.8841    0.9342 C   0  0  0  0  0  0  0  0  0  0  0  0
    7.5456   -1.5023   -1.0032 C   0  0  0  0  0  0  0  0  0  0  0  0
   14.9708    2.4750    6.7126 C   0  0  0  0  0  0  0  0  0  0  0  0
   12.8092    3.7810    6.7956 C   0  0  0  0  0  0  0  0  0  0  0  0
    5.0523    0.1371   -0.8361 O   0  0  0  0  0  0  0  0  0  0  0  0
   15.7135    3.1066    5.5289 C   0  0  0  0  0  0  0  0  0  0  0  0
   17.2037    3.0503    5.7333 C   0  0  0  0  0  0  0  0  0  0  0  0
   18.1579    3.6481    4.9932 C   0  0  0  0  0  0  0  0  0  0  0  0
   17.9053    4.4696    3.7591 C   0  0  0  0  0  0  0  0  0  0  0  0
   19.6123    3.5147    5.3622 C   0  0  0  0  0  0  0  0  0  0  0  0
    8.3064    3.4140    4.9321 H   0  0  0  0  0  0  0  0  0  0  0  0
    9.2602    3.0962    2.8251 H   0  0  0  0  0  0  0  0  0  0  0  0
   10.5908    3.4505    5.1108 H   0  0  0  0  0  0  0  0  0  0  0  0
   11.3302    3.3639    3.5111 H   0  0  0  0  0  0  0  0  0  0  0  0
   10.7235   -1.8648    3.0168 H   0  0  0  0  0  0  0  0  0  0  0  0
   11.0556   -1.0904    1.4313 H   0  0  0  0  0  0  0  0  0  0  0  0
    8.8149    0.1103    0.4971 H   0  0  0  0  0  0  0  0  0  0  0  0
    7.7938    2.3137    1.1512 H   0  0  0  0  0  0  0  0  0  0  0  0
    6.8340    2.3604    2.6482 H   0  0  0  0  0  0  0  0  0  0  0  0
    7.8043   -0.7254    4.1074 H   0  0  0  0  0  0  0  0  0  0  0  0
    6.3293   -0.5991    3.1792 H   0  0  0  0  0  0  0  0  0  0  0  0
    6.8216    0.7149    4.2203 H   0  0  0  0  0  0  0  0  0  0  0  0
   13.4397    2.7204    4.5384 H   0  0  0  0  0  0  0  0  0  0  0  0
    9.9083    0.5604    5.5392 H   0  0  0  0  0  0  0  0  0  0  0  0
   10.7608    1.5639    6.6877 H   0  0  0  0  0  0  0  0  0  0  0  0
   11.4509    0.0425    6.1758 H   0  0  0  0  0  0  0  0  0  0  0  0
   13.3124   -0.7878    3.1314 H   0  0  0  0  0  0  0  0  0  0  0  0
   12.3239   -1.1117    4.4928 H   0  0  0  0  0  0  0  0  0  0  0  0
   11.7175    2.0569    1.7241 H   0  0  0  0  0  0  0  0  0  0  0  0
   12.7451    0.6653    1.4781 H   0  0  0  0  0  0  0  0  0  0  0  0
   13.2782    1.9743    2.5053 H   0  0  0  0  0  0  0  0  0  0  0  0
    8.5138   -2.1118    2.5134 H   0  0  0  0  0  0  0  0  0  0  0  0
    9.2351   -2.2990    0.9209 H   0  0  0  0  0  0  0  0  0  0  0  0
    5.4180    2.2333    0.6801 H   0  0  0  0  0  0  0  0  0  0  0  0
    5.2620    0.8218    1.7208 H   0  0  0  0  0  0  0  0  0  0  0  0
   13.0107    1.7176    7.2278 H   0  0  0  0  0  0  0  0  0  0  0  0
   13.9501   -0.0115    5.7300 H   0  0  0  0  0  0  0  0  0  0  0  0
   14.6935    0.6368    4.3032 H   0  0  0  0  0  0  0  0  0  0  0  0
    6.9253    0.9702   -0.7569 H   0  0  0  0  0  0  0  0  0  0  0  0
    6.6234   -2.5401    1.5670 H   0  0  0  0  0  0  0  0  0  0  0  0
    5.5907   -2.4524    0.1604 H   0  0  0  0  0  0  0  0  0  0  0  0
    5.3171   -1.3809    1.5132 H   0  0  0  0  0  0  0  0  0  0  0  0
    6.7605   -1.5417   -1.7292 H   0  0  0  0  0  0  0  0  0  0  0  0
    7.8840   -2.4946   -0.7896 H   0  0  0  0  0  0  0  0  0  0  0  0
    8.3587   -0.9231   -1.3883 H   0  0  0  0  0  0  0  0  0  0  0  0
   15.3385    1.4794    6.8486 H   0  0  0  0  0  0  0  0  0  0  0  0
   15.1523    3.0994    7.5623 H   0  0  0  0  0  0  0  0  0  0  0  0
   13.2870    4.2269    7.6428 H   0  0  0  0  0  0  0  0  0  0  0  0
   11.7639    3.6676    6.9943 H   0  0  0  0  0  0  0  0  0  0  0  0
   12.9435    4.4083    5.9392 H   0  0  0  0  0  0  0  0  0  0  0  0
    4.4304   -0.3196   -0.2483 H   0  0  0  0  0  0  0  0  0  0  0  0
   15.4122    4.1288    5.4322 H   0  0  0  0  0  0  0  0  0  0  0  0
   15.4705    2.5581    4.6428 H   0  0  0  0  0  0  0  0  0  0  0  0
   17.5331    2.4883    6.5337 H   0  0  0  0  0  0  0  0  0  0  0  0
   18.1809    3.9056    2.8926 H   0  0  0  0  0  0  0  0  0  0  0  0
   18.4884    5.3658    3.8017 H   0  0  0  0  0  0  0  0  0  0  0  0
   16.8669    4.7219    3.7050 H   0  0  0  0  0  0  0  0  0  0  0  0
   19.8825    4.2999    6.0370 H   0  0  0  0  0  0  0  0  0  0  0  0
   20.2121    3.5816    4.4786 H   0  0  0  0  0  0  0  0  0  0  0  0
   19.7754    2.5678    5.8331 H   0  0  0  0  0  0  0  0  0  0  0  0
  1  2  1  0  0  0  0
  1 33  1  0  0  0  0
  2  3  1  0  0  0  0
  2  4  1  0  0  0  0
  2 34  1  0  0  0  0
  3  5  2  0  0  0  0
  3  6  1  0  0  0  0
  4  7  1  0  0  0  0
  4 35  1  0  0  0  0
  4 36  1  0  0  0  0
  5  8  1  0  0  0  0
  5  9  1  0  0  0  0
  6 10  1  0  0  0  0
  6 11  1  0  0  0  0
  6 12  1  0  0  0  0
  7 13  1  0  0  0  0
  7 14  1  0  0  0  0
  7  8  1  0  0  0  0
  8 15  1  0  0  0  0
  8 16  1  0  0  0  0
  9 17  1  0  0  0  0
  9 37  1  0  0  0  0
  9 38  1  0  0  0  0
 10 18  1  0  0  0  0
 10 17  1  0  0  0  0
 10 39  1  0  0  0  0
 11 19  1  0  0  0  0
 11 40  1  0  0  0  0
 11 41  1  0  0  0  0
 12 42  1  0  0  0  0
 12 43  1  0  0  0  0
 12 44  1  0  0  0  0
 13 20  1  0  0  0  0
 13 21  1  0  0  0  0
 13 45  1  0  0  0  0
 14 46  1  0  0  0  0
 14 47  1  0  0  0  0
 14 48  1  0  0  0  0
 15 21  1  0  0  0  0
 15 49  1  0  0  0  0
 15 50  1  0  0  0  0
 16 51  1  0  0  0  0
 16 52  1  0  0  0  0
 16 53  1  0  0  0  0
 17 54  1  0  0  0  0
 17 55  1  0  0  0  0
 18 22  1  0  0  0  0
 18 23  1  0  0  0  0
 18 24  1  0  0  0  0
 19 22  1  0  0  0  0
 19 56  1  0  0  0  0
 19 57  1  0  0  0  0
 20 25  1  0  0  0  0
 20 26  1  0  0  0  0
 20 58  1  0  0  0  0
 21 59  1  0  0  0  0
 21 60  1  0  0  0  0
 22 27  1  0  0  0  0
 22 61  1  0  0  0  0
 23 62  1  0  0  0  0
 23 63  1  0  0  0  0
 23 64  1  0  0  0  0
 24 65  1  0  0  0  0
 24 66  1  0  0  0  0
 24 67  1  0  0  0  0
 25 28  1  0  0  0  0
 25 68  1  0  0  0  0
 25 69  1  0  0  0  0
 26 70  1  0  0  0  0
 26 71  1  0  0  0  0
 26 72  1  0  0  0  0
 27 73  1  0  0  0  0
 28 29  1  0  0  0  0
 28 74  1  0  0  0  0
 28 75  1  0  0  0  0
 29 30  2  0  0  0  0
 29 76  1  0  0  0  0
 30 31  1  0  0  0  0
 30 32  1  0  0  0  0
 31 77  1  0  0  0  0
 31 78  1  0  0  0  0
 31 79  1  0  0  0  0
 32 80  1  0  0  0  0
 32 81  1  0  0  0  0
 32 82  1  0  0  0  0
M  END
>  <Code-name>
132

>  <Compound>
Inonotsudiol A

>  <Specie>
Inonotus obliquus

>  <Reference>
GrÃ¼ndemann (2020)

>  <Organism>
Antitumoral Activity

>  <Smiles>
C[C@H](CCC=C(C)C)[C@@H](CC1)[C@@](C)(C[C@@H]2O)[C@]1(C)C(CC1)=C2[C@@](C)(CC2)[C@@H]1C(C)(C)[C@H]2O

>  <MMFF94 Energy>
122.2

>  <Total Molweight>
442.725

>  <Molweight>
442.725

>  <Monoisotopic Mass>
442.381080

>  <cLogP>
7.5695

>  <cLogS>
-6.054

>  <H-Acceptors>
2

>  <H-Donors>
2

>  <Total Surface Area>
345.89

>  <Relative PSA>
0.075747

>  <Polar Surface Area>
40.46

>  <Druglikeness>
-4.1331

>  <Mutagenic>
none

>  <Tumorigenic>
none

>  <Reproductive Effective>
high

>  <Irritant>
high

>  <Nasty Functions>


>  <Shape Index>
0.5

>  <Molecular Flexibility>
0.2881

>  <Molecular Complexity>
0.98824

>  <Fragments>
1

>  <Non-H Atoms>
32

>  <Non-C/H Atoms>
2

>  <Metal-Atoms>
0

>  <Electronegative Atoms>
2

>  <Stereo Centers>
8

>  <Rotatable Bonds>
4

>  <Rings Closures>
4

>  <Small Rings>
4

>  <Aromatic Rings>
0

>  <Aromatic Atoms>
0

>  <sp3-Atoms>
28

>  <Symmetric atoms>
2

>  <Amides>
0

>  <Amines>
0

>  <Alkyl-Amines>
0

>  <Aromatic Amines>
0

>  <Aromatic Nitrogens>
0

>  <Basic Nitrogens>
0

>  <Acidic Oxygens>
0

>  <Stereo Configuration>
this enantiomer

> <Gold.Version>
5.8.1

> <Gold.Id.Protein>
ID_2|Prot_COX2_5IKQ_Alig|mol2

> <Gold.Goldscore.Fitness>
-51.7006

> <Gold.Goldscore.Internal.Vdw>
-31.3264

> <Gold.Goldscore.Internal.Torsion>
-6.3335

> <Gold.Goldscore.External.Vdw>
-35.1710

> <Gold.Goldscore.Internal.HBond>
0.0000

> <Gold.Goldscore.External.HBond>
0.6063

> <Gold.Goldscore.Internal.Correction>
-33.7131

> <Gold.Goldscore.Hbonds>
donor molecule, donor type, donor heavy atom, donor atom, acceptor molecule, acceptor atom, score
      P1  H  8031  8036       L1     1  0.30

> <Gold.Goldscore.Internal.Vdw.Weighted>
-31.3264

> <Gold.Goldscore.Internal.Torsion.Weighted>
-6.3335

> <Gold.Goldscore.External.Vdw.Weighted>
-48.3601

> <Gold.Goldscore.Internal.HBond.Weighted>
0.0000

> <Gold.Goldscore.External.HBond.Weighted>
0.6063

> <Gold.Goldscore.Internal.Correction.Weighted>
-33.7131

> <Gold.Protein.RotatedTorsions>
[ 5077 5068 5067 5065 ] final -165.55 input  179.94 | X-H torsion
[ 5157 5152 5151 5148 ] final -145.84 input -179.92 | X-H torsion
[ 5185 5176 5175 5173 ] final  -70.91 input -179.99 | X-H torsion
[ 5712 5703 5702 5700 ] final  132.33 input  180.00 | X-H torsion
[ 8036 8031 8030 8027 ] final -137.64 input -179.94 | X-H torsion
[ 2749 2745 2743 2740 ] final  137.05 input  -60.05 | X-H torsion
[ 1366 1361 1360 1357 ] final   39.71 input  -60.09 | X-H torsion
[ 2556 2551 2550 2547 ] final   94.58 input   59.97 | X-H torsion

> <Gold.Protein.ActiveResidues>
 PRO86   VAL89   HIS90   LEU93   THR94   ILE112  MET113  TYR115  VAL116  LEU117 
 THR118  SER119  ARG120  SER121  LEU123  ILE124  GLN192  SER194  PHE198  PHE201 
 ALA202  GLN203  PHE205  THR206  PHE209  PHE210  VAL228  ILE341  ILE343  VAL344 
 ILE345  GLU346  ASP347  TYR348  VAL349  GLN350  HIS351  LEU352  SER353  GLY354 
 TYR355  PHE357  LEU359  LYS360  GLU380  PHE381  ASN382  THR383  LEU384  TYR385 
 HIS386  TRP387  LEU390  VAL434  LEU507  ARG513  ALA516  ILE517  PHE518  GLY519 
 GLU520  THR521  MET522  VAL523  GLU524  VAL525  GLY526  ALA527  PRO528  PHE529 
 SER530  LEU531  LYS532  GLY533  LEU534  MET535  COH609 

> <Gold.Protein.RotatedAtoms>
   17.7897    7.2883    1.9936 H   0  0  0  0  0  0  0  0  0  0  0  0  # atno 1366 bound_to 1361
    5.0635  -10.1135    6.9695 H   0  0  0  0  0  0  0  0  0  0  0  0  # atno 2556 bound_to 2551
   -3.2277   -0.1748   -0.1584 H   0  0  0  0  0  0  0  0  0  0  0  0  # atno 2749 bound_to 2745
    2.0574   -1.7291    3.7057 H   0  0  0  0  0  0  0  0  0  0  0  0  # atno 5077 bound_to 5068
   11.9353   -1.3585    9.2573 H   0  0  0  0  0  0  0  0  0  0  0  0  # atno 5157 bound_to 5152
   16.6036   -0.4114    4.9677 H   0  0  0  0  0  0  0  0  0  0  0  0  # atno 5185 bound_to 5176
    3.0460   -0.2459    2.3706 H   0  0  0  0  0  0  0  0  0  0  0  0  # atno 5712 bound_to 5703
    6.1767    4.1185    3.6869 H   0  0  0  0  0  0  0  0  0  0  0  0  # atno 8036 bound_to 8031
    0.5863   -1.6130    3.9951 LP  0  0  0  0  0  0  0  0  0  0  0  0  # atno 8267 bound_to 5068
    1.4344   -2.9851    4.2495 LP  0  0  0  0  0  0  0  0  0  0  0  0  # atno 8268 bound_to 5068
   13.0627   -2.3535    9.1940 LP  0  0  0  0  0  0  0  0  0  0  0  0  # atno 8279 bound_to 5152
   11.4961   -2.7965    9.3217 LP  0  0  0  0  0  0  0  0  0  0  0  0  # atno 8280 bound_to 5152
   15.3886    0.4720    5.0133 LP  0  0  0  0  0  0  0  0  0  0  0  0  # atno 8281 bound_to 5176
   15.3300   -1.0944    4.5552 LP  0  0  0  0  0  0  0  0  0  0  0  0  # atno 8282 bound_to 5176
    1.9616   -1.1646    2.8590 LP  0  0  0  0  0  0  0  0  0  0  0  0  # atno 8283 bound_to 5703
    1.7541    0.4473    2.7007 LP  0  0  0  0  0  0  0  0  0  0  0  0  # atno 8284 bound_to 5703
    4.7500    3.9610    3.2404 LP  0  0  0  0  0  0  0  0  0  0  0  0  # atno 8309 bound_to 8031
    5.4511    5.4174    3.4723 LP  0  0  0  0  0  0  0  0  0  0  0  0  # atno 8310 bound_to 8031
   -4.3253    0.2915    0.7588 LP  0  0  0  0  0  0  0  0  0  0  0  0  # atno 8323 bound_to 2745
   -3.0200   -0.5350    1.2874 LP  0  0  0  0  0  0  0  0  0  0  0  0  # atno 8324 bound_to 2745
   18.0370    7.6979    3.4201 LP  0  0  0  0  0  0  0  0  0  0  0  0  # atno 8335 bound_to 1361
   18.8799    6.5111    2.6801 LP  0  0  0  0  0  0  0  0  0  0  0  0  # atno 8336 bound_to 1361
    5.0113   -9.4079    8.2975 LP  0  0  0  0  0  0  0  0  0  0  0  0  # atno 8342 bound_to 2551
    4.4616   -8.7355    6.9147 LP  0  0  0  0  0  0  0  0  0  0  0  0  # atno 8343 bound_to 2551

