
134|LMW3_p|sdf|134|dock3
  -GOLD-   6 92210 33D 1   1.00000     0.00000

 83 87  0  0  0  0  0  0  0  0  1 V2000
   17.6216   -1.7792    4.2155 O   0  0  0  0  0  0  0  0  0  0  0  0
   18.0351   -1.0011    3.0804 C   0  0  0  0  0  0  0  0  0  0  0  0
   17.2621    0.3412    3.1189 C   0  0  1  0  0  0  0  0  0  0  0  0
   17.6780   -1.7882    1.8096 C   0  0  0  0  0  0  0  0  0  0  0  0
   19.5639   -0.8806    3.1568 C   0  0  0  0  0  0  0  0  0  0  0  0
   15.7190    0.2611    3.2361 C   0  0  1  0  0  0  0  0  0  0  0  0
   17.7115    1.3367    4.2051 C   0  0  0  0  0  0  0  0  0  0  0  0
   15.2877   -0.8779    3.9608 O   0  0  0  0  0  0  0  0  0  0  0  0
   15.3222    1.5556    3.9617 C   0  0  2  0  0  0  0  0  0  0  0  0
   16.4537    1.6935    4.9890 C   0  0  0  0  0  0  0  0  0  0  0  0
   13.9253    1.5777    4.6153 C   0  0  2  0  0  0  0  0  0  0  0  0
   12.6904    1.1908    3.7500 C   0  0  2  0  0  0  0  0  0  0  0  0
   13.5499    2.9951    5.1350 C   0  0  0  0  0  0  0  0  0  0  0  0
   11.5083    1.7595    4.6183 C   0  0  1  0  0  0  0  0  0  0  0  0
   12.4379   -0.3056    3.5446 C   0  0  0  0  0  0  0  0  0  0  0  0
   12.8095    1.8644    2.3457 C   0  0  0  0  0  0  0  0  0  0  0  0
   12.0350    3.1748    4.9174 C   0  0  0  0  0  0  0  0  0  0  0  0
   10.1838    1.5991    3.8783 C   0  0  0  0  0  0  0  0  0  0  0  0
   11.2932    1.0504    5.9920 C   0  0  0  0  0  0  0  0  0  0  0  0
   11.0505   -0.5701    2.9207 C   0  0  0  0  0  0  0  0  0  0  0  0
    9.9607    0.4912    3.1233 C   0  0  0  0  0  0  0  0  0  0  0  0
    9.1508    2.6794    4.0985 C   0  0  0  0  0  0  0  0  0  0  0  0
    8.6115    0.2675    2.3863 C   0  0  2  0  0  0  0  0  0  0  0  0
    7.8492    2.5166    3.3129 C   0  0  0  0  0  0  0  0  0  0  0  0
    7.4754    1.0335    3.1663 C   0  0  1  0  0  0  0  0  0  0  0  0
    8.2270   -1.2345    2.3399 C   0  0  0  0  0  0  0  0  0  0  0  0
    8.8468    0.7732    0.9426 C   0  0  0  0  0  0  0  0  0  0  0  0
    5.9928    0.7741    2.7021 C   0  0  0  0  0  0  0  0  0  0  0  0
    6.8275   -1.4914    1.7914 C   0  0  0  0  0  0  0  0  0  0  0  0
    5.7627   -0.7622    2.6036 C   0  0  2  0  0  0  0  0  0  0  0  0
    5.0139    1.3114    3.7852 C   0  0  0  0  0  0  0  0  0  0  0  0
    5.6039    1.4940    1.3939 C   0  0  0  0  0  0  0  0  0  0  0  0
    4.4771   -1.0690    2.0653 O   0  0  0  0  0  0  0  0  0  0  0  0
   17.3767   -1.1855    4.9426 H   0  0  0  0  0  0  0  0  0  0  0  0
   17.5269    0.6920    2.1433 H   0  0  0  0  0  0  0  0  0  0  0  0
   18.1770   -1.3536    0.9688 H   0  0  0  0  0  0  0  0  0  0  0  0
   16.6200   -1.7530    1.6538 H   0  0  0  0  0  0  0  0  0  0  0  0
   17.9884   -2.8061    1.9215 H   0  0  0  0  0  0  0  0  0  0  0  0
   20.0115   -1.6009    2.5042 H   0  0  0  0  0  0  0  0  0  0  0  0
   19.8861   -1.0605    4.1612 H   0  0  0  0  0  0  0  0  0  0  0  0
   19.8595    0.1035    2.8583 H   0  0  0  0  0  0  0  0  0  0  0  0
   15.2603    0.1650    2.2742 H   0  0  0  0  0  0  0  0  0  0  0  0
   18.1318    2.2125    3.7566 H   0  0  0  0  0  0  0  0  0  0  0  0
   18.4633    0.9146    4.8386 H   0  0  0  0  0  0  0  0  0  0  0  0
   15.3547   -1.6643    3.3969 H   0  0  0  0  0  0  0  0  0  0  0  0
   15.2229    2.3710    3.2760 H   0  0  0  0  0  0  0  0  0  0  0  0
   16.5092    2.6952    5.3610 H   0  0  0  0  0  0  0  0  0  0  0  0
   16.3108    1.0670    5.8445 H   0  0  0  0  0  0  0  0  0  0  0  0
   14.0746    0.8270    5.3629 H   0  0  0  0  0  0  0  0  0  0  0  0
   14.0895    3.7405    4.5889 H   0  0  0  0  0  0  0  0  0  0  0  0
   13.7994    3.0980    6.1704 H   0  0  0  0  0  0  0  0  0  0  0  0
   12.4919   -0.7996    4.4922 H   0  0  0  0  0  0  0  0  0  0  0  0
   13.1824   -0.6805    2.8738 H   0  0  0  0  0  0  0  0  0  0  0  0
   13.1628    2.8679    2.4603 H   0  0  0  0  0  0  0  0  0  0  0  0
   11.8497    1.8760    1.8731 H   0  0  0  0  0  0  0  0  0  0  0  0
   13.4977    1.3108    1.7418 H   0  0  0  0  0  0  0  0  0  0  0  0
   11.8480    3.8287    4.0913 H   0  0  0  0  0  0  0  0  0  0  0  0
   11.5547    3.6125    5.7675 H   0  0  0  0  0  0  0  0  0  0  0  0
   12.2358    0.7162    6.3723 H   0  0  0  0  0  0  0  0  0  0  0  0
   10.6430    0.2106    5.8620 H   0  0  0  0  0  0  0  0  0  0  0  0
   10.8533    1.7383    6.6835 H   0  0  0  0  0  0  0  0  0  0  0  0
   10.6842   -1.4865    3.3339 H   0  0  0  0  0  0  0  0  0  0  0  0
   11.2266   -0.5774    1.8653 H   0  0  0  0  0  0  0  0  0  0  0  0
    9.5886    3.6154    3.8207 H   0  0  0  0  0  0  0  0  0  0  0  0
    8.8793    2.6195    5.1318 H   0  0  0  0  0  0  0  0  0  0  0  0
    7.9722    2.9442    2.3398 H   0  0  0  0  0  0  0  0  0  0  0  0
    7.0656    3.0143    3.8450 H   0  0  0  0  0  0  0  0  0  0  0  0
    7.4438    0.5917    4.1403 H   0  0  0  0  0  0  0  0  0  0  0  0
    8.2778   -1.6272    3.3340 H   0  0  0  0  0  0  0  0  0  0  0  0
    8.9162   -1.7137    1.6764 H   0  0  0  0  0  0  0  0  0  0  0  0
    8.6724   -0.0253    0.2521 H   0  0  0  0  0  0  0  0  0  0  0  0
    9.8559    1.1155    0.8446 H   0  0  0  0  0  0  0  0  0  0  0  0
    8.1750    1.5792    0.7331 H   0  0  0  0  0  0  0  0  0  0  0  0
    6.6296   -2.5424    1.8239 H   0  0  0  0  0  0  0  0  0  0  0  0
    6.7901   -1.1260    0.7864 H   0  0  0  0  0  0  0  0  0  0  0  0
    5.8278   -1.1124    3.6125 H   0  0  0  0  0  0  0  0  0  0  0  0
    5.3200    0.9600    4.7484 H   0  0  0  0  0  0  0  0  0  0  0  0
    4.0242    0.9623    3.5762 H   0  0  0  0  0  0  0  0  0  0  0  0
    5.0241    2.3813    3.7760 H   0  0  0  0  0  0  0  0  0  0  0  0
    4.5379    1.5244    1.3068 H   0  0  0  0  0  0  0  0  0  0  0  0
    6.0148    0.9646    0.5598 H   0  0  0  0  0  0  0  0  0  0  0  0
    5.9892    2.4921    1.4079 H   0  0  0  0  0  0  0  0  0  0  0  0
    4.4661   -0.8634    1.1174 H   0  0  0  0  0  0  0  0  0  0  0  0
  1  2  1  0  0  0  0
  1 34  1  0  0  0  0
  2  3  1  0  0  0  0
  2  4  1  0  0  0  0
  2  5  1  0  0  0  0
  3  6  1  0  0  0  0
  3  7  1  0  0  0  0
  3 35  1  0  0  0  0
  4 36  1  0  0  0  0
  4 37  1  0  0  0  0
  4 38  1  0  0  0  0
  5 39  1  0  0  0  0
  5 40  1  0  0  0  0
  5 41  1  0  0  0  0
  6  8  1  0  0  0  0
  6  9  1  0  0  0  0
  6 42  1  0  0  0  0
  7 10  1  0  0  0  0
  7 43  1  0  0  0  0
  7 44  1  0  0  0  0
  8 45  1  0  0  0  0
  9 11  1  0  0  0  0
  9 10  1  0  0  0  0
  9 46  1  0  0  0  0
 10 47  1  0  0  0  0
 10 48  1  0  0  0  0
 11 12  1  0  0  0  0
 11 13  1  0  0  0  0
 11 49  1  0  0  0  0
 12 14  1  0  0  0  0
 12 15  1  0  0  0  0
 12 16  1  0  0  0  0
 13 17  1  0  0  0  0
 13 50  1  0  0  0  0
 13 51  1  0  0  0  0
 14 18  1  0  0  0  0
 14 19  1  0  0  0  0
 14 17  1  0  0  0  0
 15 20  1  0  0  0  0
 15 52  1  0  0  0  0
 15 53  1  0  0  0  0
 16 54  1  0  0  0  0
 16 55  1  0  0  0  0
 16 56  1  0  0  0  0
 17 57  1  0  0  0  0
 17 58  1  0  0  0  0
 18 21  2  0  0  0  0
 18 22  1  0  0  0  0
 19 59  1  0  0  0  0
 19 60  1  0  0  0  0
 19 61  1  0  0  0  0
 20 21  1  0  0  0  0
 20 62  1  0  0  0  0
 20 63  1  0  0  0  0
 21 23  1  0  0  0  0
 22 24  1  0  0  0  0
 22 64  1  0  0  0  0
 22 65  1  0  0  0  0
 23 25  1  0  0  0  0
 23 26  1  0  0  0  0
 23 27  1  0  0  0  0
 24 25  1  0  0  0  0
 24 66  1  0  0  0  0
 24 67  1  0  0  0  0
 25 28  1  0  0  0  0
 25 68  1  0  0  0  0
 26 29  1  0  0  0  0
 26 69  1  0  0  0  0
 26 70  1  0  0  0  0
 27 71  1  0  0  0  0
 27 72  1  0  0  0  0
 27 73  1  0  0  0  0
 28 30  1  0  0  0  0
 28 31  1  0  0  0  0
 28 32  1  0  0  0  0
 29 30  1  0  0  0  0
 29 74  1  0  0  0  0
 29 75  1  0  0  0  0
 30 33  1  0  0  0  0
 30 76  1  0  0  0  0
 31 77  1  0  0  0  0
 31 78  1  0  0  0  0
 31 79  1  0  0  0  0
 32 80  1  0  0  0  0
 32 81  1  0  0  0  0
 32 82  1  0  0  0  0
 33 83  1  0  0  0  0
M  END
>  <Code-name>
134

>  <Compound>
inonotusane A

>  <Specie>
Inonotus obliquus

>  <Reference>
GrÃ¼ndemann (2020)

>  <Organism>
Antitumoral Activity

>  <Smiles>
CC(C)([C@H](CC[C@@H]1[C@@H](CC2)[C@@](C)(CC3)[C@]2(C)C(CC2)=C3[C@@](C)(CC3)[C@@H]2C(C)(C)[C@H]3O)[C@H]1O)O

>  <MMFF94 Energy>
141.97

>  <Total Molweight>
458.724

>  <Molweight>
458.724

>  <Monoisotopic Mass>
458.375995

>  <cLogP>
5.8096

>  <cLogS>
-5.844

>  <H-Acceptors>
3

>  <H-Donors>
3

>  <Total Surface Area>
338.44

>  <Relative PSA>
0.11612

>  <Polar Surface Area>
60.69

>  <Druglikeness>
-2.2679

>  <Mutagenic>
none

>  <Tumorigenic>
none

>  <Reproductive Effective>
low

>  <Irritant>
none

>  <Nasty Functions>


>  <Shape Index>
0.45455

>  <Molecular Flexibility>
0.18623

>  <Molecular Complexity>
1.0132

>  <Fragments>
1

>  <Non-H Atoms>
33

>  <Non-C/H Atoms>
3

>  <Metal-Atoms>
0

>  <Electronegative Atoms>
3

>  <Stereo Centers>
9

>  <Rotatable Bonds>
2

>  <Rings Closures>
5

>  <Small Rings>
5

>  <Aromatic Rings>
0

>  <Aromatic Atoms>
0

>  <sp3-Atoms>
31

>  <Symmetric atoms>
2

>  <Amides>
0

>  <Amines>
0

>  <Alkyl-Amines>
0

>  <Aromatic Amines>
0

>  <Aromatic Nitrogens>
0

>  <Basic Nitrogens>
0

>  <Acidic Oxygens>
0

>  <Stereo Configuration>
this enantiomer

> <Gold.Version>
5.8.1

> <Gold.Id.Protein>
ID_2|Prot_COX2_5IKQ_Alig|mol2

> <Gold.Goldscore.Fitness>
-100.5080

> <Gold.Goldscore.Internal.Vdw>
-31.8613

> <Gold.Goldscore.Internal.Torsion>
-10.5131

> <Gold.Goldscore.External.Vdw>
-63.5025

> <Gold.Goldscore.Internal.HBond>
0.0000

> <Gold.Goldscore.External.HBond>
0.9940

> <Gold.Goldscore.Internal.Correction>
-28.1884

> <Gold.Goldscore.Hbonds>
donor molecule, donor type, donor heavy atom, donor atom, acceptor molecule, acceptor atom, score
      P1  H  5068  5077       L1    33  0.48
      P1  H  5176  5185       L1     8  0.01
      L1  H     1    34       P1  5176  0.01

> <Gold.Goldscore.Internal.Vdw.Weighted>
-31.8613

> <Gold.Goldscore.Internal.Torsion.Weighted>
-10.5131

> <Gold.Goldscore.External.Vdw.Weighted>
-87.3160

> <Gold.Goldscore.Internal.HBond.Weighted>
0.0000

> <Gold.Goldscore.External.HBond.Weighted>
0.9940

> <Gold.Goldscore.Internal.Correction.Weighted>
-28.1884

> <Gold.Protein.RotatedTorsions>
[ 5077 5068 5067 5065 ] final -157.71 input  179.94 | X-H torsion
[ 5157 5152 5151 5148 ] final  125.76 input -179.92 | X-H torsion
[ 5185 5176 5175 5173 ] final   50.47 input -179.99 | X-H torsion
[ 5712 5703 5702 5700 ] final   14.27 input  180.00 | X-H torsion
[ 8036 8031 8030 8027 ] final   73.90 input -179.94 | X-H torsion
[ 2749 2745 2743 2740 ] final  -90.78 input  -60.05 | X-H torsion
[ 1366 1361 1360 1357 ] final  135.71 input  -60.09 | X-H torsion
[ 2556 2551 2550 2547 ] final   17.07 input   59.97 | X-H torsion

> <Gold.Protein.ActiveResidues>
 PRO86   VAL89   HIS90   LEU93   THR94   ILE112  MET113  TYR115  VAL116  LEU117 
 THR118  SER119  ARG120  SER121  LEU123  ILE124  GLN192  SER194  PHE198  PHE201 
 ALA202  GLN203  PHE205  THR206  PHE209  PHE210  VAL228  ILE341  ILE343  VAL344 
 ILE345  GLU346  ASP347  TYR348  VAL349  GLN350  HIS351  LEU352  SER353  GLY354 
 TYR355  PHE357  LEU359  LYS360  GLU380  PHE381  ASN382  THR383  LEU384  TYR385 
 HIS386  TRP387  LEU390  VAL434  LEU507  ARG513  ALA516  ILE517  PHE518  GLY519 
 GLU520  THR521  MET522  VAL523  GLU524  VAL525  GLY526  ALA527  PRO528  PHE529 
 SER530  LEU531  LYS532  GLY533  LEU534  MET535  COH609 

> <Gold.Protein.RotatedAtoms>
   18.6780    6.6111    2.3570 H   0  0  0  0  0  0  0  0  0  0  0  0  # atno 1366 bound_to 1361
    5.1433   -9.9294    7.9385 H   0  0  0  0  0  0  0  0  0  0  0  0  # atno 2556 bound_to 2551
   -3.2023   -0.3768    1.2712 H   0  0  0  0  0  0  0  0  0  0  0  0  # atno 2749 bound_to 2745
    2.1073   -1.8229    3.7251 H   0  0  0  0  0  0  0  0  0  0  0  0  # atno 5077 bound_to 5068
   12.9006   -1.8839    9.1690 H   0  0  0  0  0  0  0  0  0  0  0  0  # atno 5157 bound_to 5152
   15.3918   -0.9728    4.6442 H   0  0  0  0  0  0  0  0  0  0  0  0  # atno 5185 bound_to 5176
    2.0311   -1.0413    2.7751 H   0  0  0  0  0  0  0  0  0  0  0  0  # atno 5712 bound_to 5703
    4.7702    4.4111    3.1977 H   0  0  0  0  0  0  0  0  0  0  0  0  # atno 8036 bound_to 8031
    0.6519   -1.5142    3.9442 LP  0  0  0  0  0  0  0  0  0  0  0  0  # atno 8267 bound_to 5068
    1.3091   -2.9716    4.2772 LP  0  0  0  0  0  0  0  0  0  0  0  0  # atno 8268 bound_to 5068
   11.9438   -3.0402    9.2807 LP  0  0  0  0  0  0  0  0  0  0  0  0  # atno 8279 bound_to 5152
   11.4606   -1.4815    9.3405 LP  0  0  0  0  0  0  0  0  0  0  0  0  # atno 8280 bound_to 5152
   16.7625   -0.4307    4.9376 LP  0  0  0  0  0  0  0  0  0  0  0  0  # atno 8281 bound_to 5176
   15.4112    0.4824    5.0193 LP  0  0  0  0  0  0  0  0  0  0  0  0  # atno 8282 bound_to 5176
    1.7320    0.4301    2.7095 LP  0  0  0  0  0  0  0  0  0  0  0  0  # atno 8283 bound_to 5703
    3.2017   -0.1927    2.3647 LP  0  0  0  0  0  0  0  0  0  0  0  0  # atno 8284 bound_to 5703
    5.8836    5.3275    3.6228 LP  0  0  0  0  0  0  0  0  0  0  0  0  # atno 8309 bound_to 8031
    6.0049    3.6999    3.6770 LP  0  0  0  0  0  0  0  0  0  0  0  0  # atno 8310 bound_to 8031
   -3.0468   -0.3214   -0.2241 LP  0  0  0  0  0  0  0  0  0  0  0  0  # atno 8323 bound_to 2745
   -4.3289    0.3199    0.5580 LP  0  0  0  0  0  0  0  0  0  0  0  0  # atno 8324 bound_to 2745
   17.5223    7.5462    2.1246 LP  0  0  0  0  0  0  0  0  0  0  0  0  # atno 8335 bound_to 1361
   18.3320    7.4730    3.5408 LP  0  0  0  0  0  0  0  0  0  0  0  0  # atno 8336 bound_to 1361
    4.5165   -8.6087    7.5820 LP  0  0  0  0  0  0  0  0  0  0  0  0  # atno 8342 bound_to 2551
    4.8609   -9.7548    6.4709 LP  0  0  0  0  0  0  0  0  0  0  0  0  # atno 8343 bound_to 2551

