
136|LMW3_p|sdf|136|dock69
  -GOLD-   6 92210283D 1   1.00000     0.00000

 71 74  0  0  0  0  0  0  0  0  1 V2000
   13.4978    0.2931   11.5684 O   0  0  0  0  0  0  0  0  0  0  0  0
   13.1583    0.1064   10.4070 C   0  0  0  0  0  0  0  0  0  0  0  0
   13.3214    1.1564    9.3822 C   0  0  0  0  0  0  0  0  0  0  0  0
   12.9844    0.9248    8.1043 C   0  0  0  0  0  0  0  0  0  0  0  0
   13.1423    1.9537    7.0072 C   0  0  2  0  0  0  0  0  0  0  0  0
   12.8956    1.4726    5.5507 C   0  0  2  0  0  0  0  0  0  0  0  0
   14.5570    2.5435    7.1290 C   0  0  0  0  0  0  0  0  0  0  0  0
   11.4442    1.2387    5.0459 C   0  0  2  0  0  0  0  0  0  0  0  0
   13.6316    0.1764    5.1175 C   0  0  0  0  0  0  0  0  0  0  0  0
   11.7094    0.5669    3.6485 C   0  0  1  0  0  0  0  0  0  0  0  0
   10.6146    2.5040    4.8154 C   0  0  0  0  0  0  0  0  0  0  0  0
   10.6599    0.3132    6.0258 C   0  0  0  0  0  0  0  0  0  0  0  0
   12.7405   -0.5061    4.0534 C   0  0  0  0  0  0  0  0  0  0  0  0
   10.3870    0.1508    3.0134 C   0  0  0  0  0  0  0  0  0  0  0  0
   12.3928    1.4767    2.5794 C   0  0  0  0  0  0  0  0  0  0  0  0
    9.3089    2.1892    4.0531 C   0  0  0  0  0  0  0  0  0  0  0  0
    9.2857    0.9336    3.1672 C   0  0  0  0  0  0  0  0  0  0  0  0
   10.4054   -1.1077    2.1783 C   0  0  0  0  0  0  0  0  0  0  0  0
    7.9289    0.5636    2.5051 C   0  0  2  0  0  0  0  0  0  0  0  0
    9.0587   -1.5261    1.5873 C   0  0  0  0  0  0  0  0  0  0  0  0
    8.2129   -0.2973    1.2157 C   0  0  1  0  0  0  0  0  0  0  0  0
    7.1447    1.8266    2.0679 C   0  0  0  0  0  0  0  0  0  0  0  0
    7.1267   -0.1760    3.6026 C   0  0  0  0  0  0  0  0  0  0  0  0
    6.9865   -0.6040    0.2738 C   0  0  0  0  0  0  0  0  0  0  0  0
    5.8939    1.5140    1.2560 C   0  0  0  0  0  0  0  0  0  0  0  0
    6.2187    0.7221   -0.0054 C   0  0  2  0  0  0  0  0  0  0  0  0
    7.5183   -1.1312   -1.0905 C   0  0  0  0  0  0  0  0  0  0  0  0
    6.0369   -1.6981    0.8045 C   0  0  0  0  0  0  0  0  0  0  0  0
    4.9860    0.4886   -0.6851 O   0  0  0  0  0  0  0  0  0  0  0  0
   12.7502   -0.8028   10.1392 H   0  0  0  0  0  0  0  0  0  0  0  0
   13.6987    2.0784    9.6516 H   0  0  0  0  0  0  0  0  0  0  0  0
   12.5987   -0.0002    7.8582 H   0  0  0  0  0  0  0  0  0  0  0  0
   12.3646    2.6715    7.1645 H   0  0  0  0  0  0  0  0  0  0  0  0
   13.2921    2.3637    5.1107 H   0  0  0  0  0  0  0  0  0  0  0  0
   14.7679    2.7553    8.1564 H   0  0  0  0  0  0  0  0  0  0  0  0
   14.6170    3.4470    6.5589 H   0  0  0  0  0  0  0  0  0  0  0  0
   15.2706    1.8386    6.7563 H   0  0  0  0  0  0  0  0  0  0  0  0
   13.7633   -0.4716    5.9587 H   0  0  0  0  0  0  0  0  0  0  0  0
   14.6012    0.3979    4.7229 H   0  0  0  0  0  0  0  0  0  0  0  0
   11.1923    3.2002    4.2439 H   0  0  0  0  0  0  0  0  0  0  0  0
   10.3574    2.9171    5.7684 H   0  0  0  0  0  0  0  0  0  0  0  0
   10.6333    0.7626    6.9965 H   0  0  0  0  0  0  0  0  0  0  0  0
   11.1475   -0.6373    6.0860 H   0  0  0  0  0  0  0  0  0  0  0  0
    9.6606    0.1793    5.6672 H   0  0  0  0  0  0  0  0  0  0  0  0
   12.2497   -1.3622    4.4668 H   0  0  0  0  0  0  0  0  0  0  0  0
   13.3090   -0.8534    3.2160 H   0  0  0  0  0  0  0  0  0  0  0  0
   13.2171    1.9933    3.0251 H   0  0  0  0  0  0  0  0  0  0  0  0
   11.6836    2.1880    2.2105 H   0  0  0  0  0  0  0  0  0  0  0  0
   12.7460    0.8725    1.7701 H   0  0  0  0  0  0  0  0  0  0  0  0
    9.0953    3.0282    3.4243 H   0  0  0  0  0  0  0  0  0  0  0  0
    8.5881    1.9937    4.8192 H   0  0  0  0  0  0  0  0  0  0  0  0
   10.7571   -1.9077    2.7956 H   0  0  0  0  0  0  0  0  0  0  0  0
   11.0394   -0.8962    1.3428 H   0  0  0  0  0  0  0  0  0  0  0  0
    8.5271   -2.1114    2.3083 H   0  0  0  0  0  0  0  0  0  0  0  0
    9.2388   -2.0963    0.7000 H   0  0  0  0  0  0  0  0  0  0  0  0
    8.7859    0.3313    0.5665 H   0  0  0  0  0  0  0  0  0  0  0  0
    7.7909    2.4375    1.4728 H   0  0  0  0  0  0  0  0  0  0  0  0
    6.8250    2.3233    2.9601 H   0  0  0  0  0  0  0  0  0  0  0  0
    6.2571   -0.6234    3.1684 H   0  0  0  0  0  0  0  0  0  0  0  0
    6.8296    0.5209    4.3582 H   0  0  0  0  0  0  0  0  0  0  0  0
    7.7387   -0.9370    4.0400 H   0  0  0  0  0  0  0  0  0  0  0  0
    5.4245    2.4338    0.9758 H   0  0  0  0  0  0  0  0  0  0  0  0
    5.2443    0.9190    1.8633 H   0  0  0  0  0  0  0  0  0  0  0  0
    6.8894    1.2912   -0.6146 H   0  0  0  0  0  0  0  0  0  0  0  0
    7.9183   -2.1152   -0.9611 H   0  0  0  0  0  0  0  0  0  0  0  0
    8.2860   -0.4785   -1.4504 H   0  0  0  0  0  0  0  0  0  0  0  0
    6.7161   -1.1625   -1.7979 H   0  0  0  0  0  0  0  0  0  0  0  0
    5.5685   -2.1942   -0.0196 H   0  0  0  0  0  0  0  0  0  0  0  0
    5.2879   -1.2505    1.4238 H   0  0  0  0  0  0  0  0  0  0  0  0
    6.5958   -2.4083    1.3774 H   0  0  0  0  0  0  0  0  0  0  0  0
    5.1488    0.4324   -1.6397 H   0  0  0  0  0  0  0  0  0  0  0  0
  1  2  2  0  0  0  0
  2  3  1  0  0  0  0
  2 30  1  0  0  0  0
  3  4  2  0  0  0  0
  3 31  1  0  0  0  0
  4  5  1  0  0  0  0
  4 32  1  0  0  0  0
  5  6  1  0  0  0  0
  5  7  1  0  0  0  0
  5 33  1  0  0  0  0
  6  8  1  0  0  0  0
  6  9  1  0  0  0  0
  6 34  1  0  0  0  0
  7 35  1  0  0  0  0
  7 36  1  0  0  0  0
  7 37  1  0  0  0  0
  8 10  1  0  0  0  0
  8 11  1  0  0  0  0
  8 12  1  0  0  0  0
  9 13  1  0  0  0  0
  9 38  1  0  0  0  0
  9 39  1  0  0  0  0
 10 14  1  0  0  0  0
 10 15  1  0  0  0  0
 10 13  1  0  0  0  0
 11 16  1  0  0  0  0
 11 40  1  0  0  0  0
 11 41  1  0  0  0  0
 12 42  1  0  0  0  0
 12 43  1  0  0  0  0
 12 44  1  0  0  0  0
 13 45  1  0  0  0  0
 13 46  1  0  0  0  0
 14 17  2  0  0  0  0
 14 18  1  0  0  0  0
 15 47  1  0  0  0  0
 15 48  1  0  0  0  0
 15 49  1  0  0  0  0
 16 17  1  0  0  0  0
 16 50  1  0  0  0  0
 16 51  1  0  0  0  0
 17 19  1  0  0  0  0
 18 20  1  0  0  0  0
 18 52  1  0  0  0  0
 18 53  1  0  0  0  0
 19 21  1  0  0  0  0
 19 22  1  0  0  0  0
 19 23  1  0  0  0  0
 20 21  1  0  0  0  0
 20 54  1  0  0  0  0
 20 55  1  0  0  0  0
 21 24  1  0  0  0  0
 21 56  1  0  0  0  0
 22 25  1  0  0  0  0
 22 57  1  0  0  0  0
 22 58  1  0  0  0  0
 23 59  1  0  0  0  0
 23 60  1  0  0  0  0
 23 61  1  0  0  0  0
 24 26  1  0  0  0  0
 24 27  1  0  0  0  0
 24 28  1  0  0  0  0
 25 26  1  0  0  0  0
 25 62  1  0  0  0  0
 25 63  1  0  0  0  0
 26 29  1  0  0  0  0
 26 64  1  0  0  0  0
 27 65  1  0  0  0  0
 27 66  1  0  0  0  0
 27 67  1  0  0  0  0
 28 68  1  0  0  0  0
 28 69  1  0  0  0  0
 28 70  1  0  0  0  0
 29 71  1  0  0  0  0
M  END
>  <Code-name>
136

>  <Compound>
Inonotusane C

>  <Specie>
Inonotus obliquus

>  <Reference>
GrÃ¼ndemann (2020)

>  <Organism>
Antitumoral Activity

>  <Smiles>
C[C@@H]([C@@H](CC1)[C@@](C)(CC2)[C@]1(C)C(CC1)=C2[C@@](C)(CC2)[C@@H]1C(C)(C)[C@H]2O)/C=C/C=O

>  <MMFF94 Energy>
122.84

>  <Total Molweight>
398.628

>  <Molweight>
398.628

>  <Monoisotopic Mass>
398.318480

>  <cLogP>
5.7674

>  <cLogS>
-5.497

>  <H-Acceptors>
2

>  <H-Donors>
1

>  <Total Surface Area>
310.09

>  <Relative PSA>
0.084298

>  <Polar Surface Area>
37.3

>  <Druglikeness>
-4.1929

>  <Mutagenic>
low

>  <Tumorigenic>
high

>  <Reproductive Effective>
low

>  <Irritant>
low

>  <Nasty Functions>


>  <Shape Index>
0.51724

>  <Molecular Flexibility>
0.20627

>  <Molecular Complexity>
0.99689

>  <Fragments>
1

>  <Non-H Atoms>
29

>  <Non-C/H Atoms>
2

>  <Metal-Atoms>
0

>  <Electronegative Atoms>
2

>  <Stereo Centers>
7

>  <Rotatable Bonds>
3

>  <Rings Closures>
4

>  <Small Rings>
4

>  <Aromatic Rings>
0

>  <Aromatic Atoms>
0

>  <sp3-Atoms>
23

>  <Symmetric atoms>
1

>  <Amides>
0

>  <Amines>
0

>  <Alkyl-Amines>
0

>  <Aromatic Amines>
0

>  <Aromatic Nitrogens>
0

>  <Basic Nitrogens>
0

>  <Acidic Oxygens>
0

>  <Stereo Configuration>
this enantiomer

> <Gold.Version>
5.8.1

> <Gold.Id.Protein>
ID_2|Prot_COX2_5IKQ_Alig|mol2

> <Gold.Goldscore.Fitness>
0.0000

> <Gold.Goldscore.Internal.Vdw>
-29.5510

> <Gold.Goldscore.Internal.Torsion>
-8.0750

> <Gold.Goldscore.External.Vdw>
-258.8282

> <Gold.Goldscore.Internal.HBond>
0.0000

> <Gold.Goldscore.External.HBond>
0.0429

> <Gold.Goldscore.Internal.Correction>
-21.8051

> <Gold.Goldscore.Internal.Vdw.Weighted>
-29.5510

> <Gold.Goldscore.Internal.Torsion.Weighted>
-8.0750

> <Gold.Goldscore.External.Vdw.Weighted>
-355.8888

> <Gold.Goldscore.Internal.HBond.Weighted>
0.0000

> <Gold.Goldscore.External.HBond.Weighted>
0.0429

> <Gold.Goldscore.Internal.Correction.Weighted>
-21.8051

> <Gold.Protein.RotatedTorsions>
[ 5077 5068 5067 5065 ] final  146.19 input  179.94 | X-H torsion
[ 5157 5152 5151 5148 ] final   66.17 input -179.92 | X-H torsion
[ 5185 5176 5175 5173 ] final -165.93 input -179.99 | X-H torsion
[ 5712 5703 5702 5700 ] final  174.37 input  180.00 | X-H torsion
[ 8036 8031 8030 8027 ] final -109.63 input -179.94 | X-H torsion
[ 2749 2745 2743 2740 ] final  153.70 input  -60.05 | X-H torsion
[ 1366 1361 1360 1357 ] final -120.56 input  -60.09 | X-H torsion
[ 2556 2551 2550 2547 ] final  -31.44 input   59.97 | X-H torsion

> <Gold.Protein.ActiveResidues>
 PRO86   VAL89   HIS90   LEU93   THR94   ILE112  MET113  TYR115  VAL116  LEU117 
 THR118  SER119  ARG120  SER121  LEU123  ILE124  GLN192  SER194  PHE198  PHE201 
 ALA202  GLN203  PHE205  THR206  PHE209  PHE210  VAL228  ILE341  ILE343  VAL344 
 ILE345  GLU346  ASP347  TYR348  VAL349  GLN350  HIS351  LEU352  SER353  GLY354 
 TYR355  PHE357  LEU359  LYS360  GLU380  PHE381  ASN382  THR383  LEU384  TYR385 
 HIS386  TRP387  LEU390  VAL434  LEU507  ARG513  ALA516  ILE517  PHE518  GLY519 
 GLU520  THR521  MET522  VAL523  GLU524  VAL525  GLY526  ALA527  PRO528  PHE529 
 SER530  LEU531  LYS532  GLY533  LEU534  MET535  COH609 

> <Gold.Protein.RotatedAtoms>
   18.5002    7.2959    3.3793 H   0  0  0  0  0  0  0  0  0  0  0  0  # atno 1366 bound_to 1361
    4.9140   -9.3600    8.1502 H   0  0  0  0  0  0  0  0  0  0  0  0  # atno 2556 bound_to 2551
   -3.0579   -0.2870   -0.0540 H   0  0  0  0  0  0  0  0  0  0  0  0  # atno 2749 bound_to 2745
    1.5349   -1.3503    3.7099 H   0  0  0  0  0  0  0  0  0  0  0  0  # atno 5077 bound_to 5068
   12.7309   -2.6510    9.1742 H   0  0  0  0  0  0  0  0  0  0  0  0  # atno 5157 bound_to 5152
   15.7824    0.4014    5.0915 H   0  0  0  0  0  0  0  0  0  0  0  0  # atno 5185 bound_to 5176
    2.7859    0.2560    2.3784 H   0  0  0  0  0  0  0  0  0  0  0  0  # atno 5712 bound_to 5703
    6.2580    4.4905    3.7123 H   0  0  0  0  0  0  0  0  0  0  0  0  # atno 8036 bound_to 8031
    0.5407   -2.3372    4.2567 LP  0  0  0  0  0  0  0  0  0  0  0  0  # atno 8267 bound_to 5068
    2.1057   -2.7145    3.9829 LP  0  0  0  0  0  0  0  0  0  0  0  0  # atno 8268 bound_to 5068
   11.2560   -2.4064    9.3468 LP  0  0  0  0  0  0  0  0  0  0  0  0  # atno 8279 bound_to 5152
   12.3512   -1.1977    9.2683 LP  0  0  0  0  0  0  0  0  0  0  0  0  # atno 8280 bound_to 5152
   15.0436   -0.8108    4.5984 LP  0  0  0  0  0  0  0  0  0  0  0  0  # atno 8281 bound_to 5176
   16.6611   -0.7875    4.8215 LP  0  0  0  0  0  0  0  0  0  0  0  0  # atno 8282 bound_to 5176
    2.6116   -1.2070    2.6748 LP  0  0  0  0  0  0  0  0  0  0  0  0  # atno 8283 bound_to 5703
    1.4163   -0.1126    2.8754 LP  0  0  0  0  0  0  0  0  0  0  0  0  # atno 8284 bound_to 5703
    5.0650    3.6498    3.3519 LP  0  0  0  0  0  0  0  0  0  0  0  0  # atno 8309 bound_to 8031
    5.0386    5.2824    3.3305 LP  0  0  0  0  0  0  0  0  0  0  0  0  # atno 8310 bound_to 8031
   -4.3212    0.3247    0.4875 LP  0  0  0  0  0  0  0  0  0  0  0  0  # atno 8323 bound_to 2745
   -3.2275   -0.4338    1.4336 LP  0  0  0  0  0  0  0  0  0  0  0  0  # atno 8324 bound_to 2745
   18.5826    6.5079    2.1002 LP  0  0  0  0  0  0  0  0  0  0  0  0  # atno 8335 bound_to 1361
   17.4844    7.6920    2.3423 LP  0  0  0  0  0  0  0  0  0  0  0  0  # atno 8336 bound_to 1361
    4.4724   -8.7898    6.8296 LP  0  0  0  0  0  0  0  0  0  0  0  0  # atno 8342 bound_to 2551
    5.1794  -10.2550    6.9701 LP  0  0  0  0  0  0  0  0  0  0  0  0  # atno 8343 bound_to 2551

