
138|LMW3_p|sdf|138|dock1
  -GOLD-   6 92212593D 1   1.00000     0.00000

 83 87  0  0  0  0  0  0  0  0  1 V2000
   16.4754    2.6539    4.4655 O   0  0  0  0  0  0  0  0  0  0  0  0
   17.7554    3.2941    4.3048 C   0  0  0  0  0  0  0  0  0  0  0  0
   16.6628    1.2220    4.3662 C   0  0  1  0  0  0  0  0  0  0  0  0
   18.5351    2.3507    3.3837 C   0  0  2  0  0  0  0  0  0  0  0  0
   18.3938    3.4757    5.6872 C   0  0  0  0  0  0  0  0  0  0  0  0
   17.5346    4.6602    3.6592 C   0  0  0  0  0  0  0  0  0  0  0  0
   15.5081    0.6131    3.5225 C   0  0  2  0  0  0  0  0  0  0  0  0
   18.0814    0.9842    3.8486 C   0  0  0  0  0  0  0  0  0  0  0  0
   19.9444    2.4748    3.4565 O   0  0  0  0  0  0  0  0  0  0  0  0
   14.1138    0.8785    4.1644 C   0  0  2  0  0  0  0  0  0  0  0  0
   15.7597   -0.8763    3.2519 C   0  0  0  0  0  0  0  0  0  0  0  0
   12.8126    0.5346    3.3742 C   0  0  2  0  0  0  0  0  0  0  0  0
   13.9073    2.3834    4.5114 C   0  0  0  0  0  0  0  0  0  0  0  0
   11.7280    1.3417    4.1860 C   0  0  1  0  0  0  0  0  0  0  0  0
   12.3733   -0.9344    3.3707 C   0  0  0  0  0  0  0  0  0  0  0  0
   12.9609    1.0160    1.8966 C   0  0  0  0  0  0  0  0  0  0  0  0
   12.4185    2.7108    4.2949 C   0  0  0  0  0  0  0  0  0  0  0  0
   10.3696    1.2500    3.4983 C   0  0  0  0  0  0  0  0  0  0  0  0
   11.4776    0.8389    5.6427 C   0  0  0  0  0  0  0  0  0  0  0  0
   10.9473   -1.1050    2.8027 C   0  0  0  0  0  0  0  0  0  0  0  0
    9.9949    0.0932    2.8920 C   0  0  0  0  0  0  0  0  0  0  0  0
    9.4754    2.4642    3.6001 C   0  0  0  0  0  0  0  0  0  0  0  0
    8.6056   -0.0563    2.2121 C   0  0  2  0  0  0  0  0  0  0  0  0
    8.1383    2.3627    2.8654 C   0  0  0  0  0  0  0  0  0  0  0  0
    7.5913    0.9276    2.9113 C   0  0  1  0  0  0  0  0  0  0  0  0
    8.0490   -1.4965    2.3587 C   0  0  0  0  0  0  0  0  0  0  0  0
    8.8510    0.2398    0.7130 C   0  0  0  0  0  0  0  0  0  0  0  0
    6.0743    0.7914    2.5099 C   0  0  0  0  0  0  0  0  0  0  0  0
    6.6120   -1.6500    1.8715 C   0  0  0  0  0  0  0  0  0  0  0  0
    5.6654   -0.7072    2.6069 C   0  0  2  0  0  0  0  0  0  0  0  0
    5.1996    1.5680    3.5356 C   0  0  0  0  0  0  0  0  0  0  0  0
    5.7283    1.3887    1.1299 C   0  0  0  0  0  0  0  0  0  0  0  0
    4.3360   -0.9229    2.1355 O   0  0  0  0  0  0  0  0  0  0  0  0
   16.5986    0.7118    5.3046 H   0  0  0  0  0  0  0  0  0  0  0  0
   18.3357    2.5648    2.3545 H   0  0  0  0  0  0  0  0  0  0  0  0
   19.3811    3.8725    5.5747 H   0  0  0  0  0  0  0  0  0  0  0  0
   18.4443    2.5293    6.1839 H   0  0  0  0  0  0  0  0  0  0  0  0
   17.8016    4.1520    6.2675 H   0  0  0  0  0  0  0  0  0  0  0  0
   17.1180    4.5300    2.6824 H   0  0  0  0  0  0  0  0  0  0  0  0
   18.4702    5.1738    3.5823 H   0  0  0  0  0  0  0  0  0  0  0  0
   16.8611    5.2343    4.2605 H   0  0  0  0  0  0  0  0  0  0  0  0
   15.4937    1.1102    2.5750 H   0  0  0  0  0  0  0  0  0  0  0  0
   18.0781    0.2877    3.0362 H   0  0  0  0  0  0  0  0  0  0  0  0
   18.7270    0.5670    4.5929 H   0  0  0  0  0  0  0  0  0  0  0  0
   20.2047    3.3685    3.1838 H   0  0  0  0  0  0  0  0  0  0  0  0
   14.1981    0.1989    4.9865 H   0  0  0  0  0  0  0  0  0  0  0  0
   14.8987   -1.4418    3.5411 H   0  0  0  0  0  0  0  0  0  0  0  0
   16.6075   -1.2033    3.8171 H   0  0  0  0  0  0  0  0  0  0  0  0
   15.9486   -1.0224    2.2089 H   0  0  0  0  0  0  0  0  0  0  0  0
   14.5116    2.9918    3.8714 H   0  0  0  0  0  0  0  0  0  0  0  0
   14.1914    2.5779    5.5245 H   0  0  0  0  0  0  0  0  0  0  0  0
   12.3929   -1.3042    4.3745 H   0  0  0  0  0  0  0  0  0  0  0  0
   13.0479   -1.4818    2.7460 H   0  0  0  0  0  0  0  0  0  0  0  0
   13.7460    0.4672    1.4197 H   0  0  0  0  0  0  0  0  0  0  0  0
   13.1964    2.0596    1.8834 H   0  0  0  0  0  0  0  0  0  0  0  0
   12.0420    0.8511    1.3738 H   0  0  0  0  0  0  0  0  0  0  0  0
   12.2833    3.2739    3.3951 H   0  0  0  0  0  0  0  0  0  0  0  0
   12.0157    3.3047    5.0885 H   0  0  0  0  0  0  0  0  0  0  0  0
   10.8763    1.5515    6.1677 H   0  0  0  0  0  0  0  0  0  0  0  0
   12.4147    0.7232    6.1462 H   0  0  0  0  0  0  0  0  0  0  0  0
   10.9702   -0.1027    5.6127 H   0  0  0  0  0  0  0  0  0  0  0  0
   10.4893   -1.9168    3.3282 H   0  0  0  0  0  0  0  0  0  0  0  0
   11.0913   -1.2575    1.7535 H   0  0  0  0  0  0  0  0  0  0  0  0
   10.0089    3.3006    3.1992 H   0  0  0  0  0  0  0  0  0  0  0  0
    9.2329    2.5633    4.6376 H   0  0  0  0  0  0  0  0  0  0  0  0
    8.2774    2.6514    1.8445 H   0  0  0  0  0  0  0  0  0  0  0  0
    7.4355    3.0105    3.3462 H   0  0  0  0  0  0  0  0  0  0  0  0
    7.5404    0.6139    3.9330 H   0  0  0  0  0  0  0  0  0  0  0  0
    8.0863   -1.7697    3.3925 H   0  0  0  0  0  0  0  0  0  0  0  0
    8.6563   -2.1306    1.7471 H   0  0  0  0  0  0  0  0  0  0  0  0
    8.7549   -0.6652    0.1503 H   0  0  0  0  0  0  0  0  0  0  0  0
    9.8362    0.6368    0.5845 H   0  0  0  0  0  0  0  0  0  0  0  0
    8.1314    0.9525    0.3678 H   0  0  0  0  0  0  0  0  0  0  0  0
    6.2952   -2.6586    2.0369 H   0  0  0  0  0  0  0  0  0  0  0  0
    6.5842   -1.4063    0.8300 H   0  0  0  0  0  0  0  0  0  0  0  0
    5.7230   -0.9380    3.6501 H   0  0  0  0  0  0  0  0  0  0  0  0
    4.1680    1.3348    3.3734 H   0  0  0  0  0  0  0  0  0  0  0  0
    5.3515    2.6197    3.4100 H   0  0  0  0  0  0  0  0  0  0  0  0
    5.4776    1.2837    4.5290 H   0  0  0  0  0  0  0  0  0  0  0  0
    4.6996    1.6828    1.1162 H   0  0  0  0  0  0  0  0  0  0  0  0
    5.8994    0.6546    0.3704 H   0  0  0  0  0  0  0  0  0  0  0  0
    6.3459    2.2428    0.9459 H   0  0  0  0  0  0  0  0  0  0  0  0
    4.3092   -0.7961    1.1743 H   0  0  0  0  0  0  0  0  0  0  0  0
  1  2  1  0  0  0  0
  1  3  1  0  0  0  0
  2  4  1  0  0  0  0
  2  5  1  0  0  0  0
  2  6  1  0  0  0  0
  3  7  1  0  0  0  0
  3  8  1  0  0  0  0
  3 34  1  0  0  0  0
  4  9  1  0  0  0  0
  4  8  1  0  0  0  0
  4 35  1  0  0  0  0
  5 36  1  0  0  0  0
  5 37  1  0  0  0  0
  5 38  1  0  0  0  0
  6 39  1  0  0  0  0
  6 40  1  0  0  0  0
  6 41  1  0  0  0  0
  7 10  1  0  0  0  0
  7 11  1  0  0  0  0
  7 42  1  0  0  0  0
  8 43  1  0  0  0  0
  8 44  1  0  0  0  0
  9 45  1  0  0  0  0
 10 12  1  0  0  0  0
 10 13  1  0  0  0  0
 10 46  1  0  0  0  0
 11 47  1  0  0  0  0
 11 48  1  0  0  0  0
 11 49  1  0  0  0  0
 12 14  1  0  0  0  0
 12 15  1  0  0  0  0
 12 16  1  0  0  0  0
 13 17  1  0  0  0  0
 13 50  1  0  0  0  0
 13 51  1  0  0  0  0
 14 18  1  0  0  0  0
 14 19  1  0  0  0  0
 14 17  1  0  0  0  0
 15 20  1  0  0  0  0
 15 52  1  0  0  0  0
 15 53  1  0  0  0  0
 16 54  1  0  0  0  0
 16 55  1  0  0  0  0
 16 56  1  0  0  0  0
 17 57  1  0  0  0  0
 17 58  1  0  0  0  0
 18 21  2  0  0  0  0
 18 22  1  0  0  0  0
 19 59  1  0  0  0  0
 19 60  1  0  0  0  0
 19 61  1  0  0  0  0
 20 21  1  0  0  0  0
 20 62  1  0  0  0  0
 20 63  1  0  0  0  0
 21 23  1  0  0  0  0
 22 24  1  0  0  0  0
 22 64  1  0  0  0  0
 22 65  1  0  0  0  0
 23 25  1  0  0  0  0
 23 26  1  0  0  0  0
 23 27  1  0  0  0  0
 24 25  1  0  0  0  0
 24 66  1  0  0  0  0
 24 67  1  0  0  0  0
 25 28  1  0  0  0  0
 25 68  1  0  0  0  0
 26 29  1  0  0  0  0
 26 69  1  0  0  0  0
 26 70  1  0  0  0  0
 27 71  1  0  0  0  0
 27 72  1  0  0  0  0
 27 73  1  0  0  0  0
 28 30  1  0  0  0  0
 28 31  1  0  0  0  0
 28 32  1  0  0  0  0
 29 30  1  0  0  0  0
 29 74  1  0  0  0  0
 29 75  1  0  0  0  0
 30 33  1  0  0  0  0
 30 76  1  0  0  0  0
 31 77  1  0  0  0  0
 31 78  1  0  0  0  0
 31 79  1  0  0  0  0
 32 80  1  0  0  0  0
 32 81  1  0  0  0  0
 32 82  1  0  0  0  0
 33 83  1  0  0  0  0
M  END
>  <Code-name>
138

>  <Compound>
inonotsuoxides A

>  <Specie>
Inonotus obliquus

>  <Reference>
GrÃ¼ndemann (2020)

>  <Organism>
Antitumoral Activity

>  <Smiles>
C[C@@H]([C@@H](CC1)[C@@](C)(CC2)[C@]1(C)C(CC1)=C2[C@@](C)(CC2)[C@@H]1C(C)(C)[C@H]2O)[C@@H](C1)OC(C)(C)[C@H]1O

>  <MMFF94 Energy>
155.52

>  <Total Molweight>
458.724

>  <Molweight>
458.724

>  <Monoisotopic Mass>
458.375995

>  <cLogP>
5.9139

>  <cLogS>
-5.95

>  <H-Acceptors>
3

>  <H-Donors>
2

>  <Total Surface Area>
340.59

>  <Relative PSA>
0.10629

>  <Polar Surface Area>
49.69

>  <Druglikeness>
-3.9986

>  <Mutagenic>
none

>  <Tumorigenic>
none

>  <Reproductive Effective>
low

>  <Irritant>
none

>  <Nasty Functions>


>  <Shape Index>
0.45455

>  <Molecular Flexibility>
0.21188

>  <Molecular Complexity>
1.0089

>  <Fragments>
1

>  <Non-H Atoms>
33

>  <Non-C/H Atoms>
3

>  <Metal-Atoms>
0

>  <Electronegative Atoms>
3

>  <Stereo Centers>
9

>  <Rotatable Bonds>
2

>  <Rings Closures>
5

>  <Small Rings>
5

>  <Aromatic Rings>
0

>  <Aromatic Atoms>
0

>  <sp3-Atoms>
31

>  <Symmetric atoms>
2

>  <Amides>
0

>  <Amines>
0

>  <Alkyl-Amines>
0

>  <Aromatic Amines>
0

>  <Aromatic Nitrogens>
0

>  <Basic Nitrogens>
0

>  <Acidic Oxygens>
0

>  <Stereo Configuration>
this enantiomer

> <Gold.Version>
5.8.1

> <Gold.Id.Protein>
ID_2|Prot_COX2_5IKQ_Alig|mol2

> <Gold.Goldscore.Fitness>
-74.0847

> <Gold.Goldscore.Internal.Vdw>
-33.9968

> <Gold.Goldscore.Internal.Torsion>
-7.2827

> <Gold.Goldscore.External.Vdw>
-51.5266

> <Gold.Goldscore.Internal.HBond>
0.0000

> <Gold.Goldscore.External.HBond>
7.1316

> <Gold.Goldscore.Internal.Correction>
-30.9123

> <Gold.Goldscore.Hbonds>
donor molecule, donor type, donor heavy atom, donor atom, acceptor molecule, acceptor atom, score
      P1  H  1377  1389       L1     1  1.00
      P1  H  5068  5077       L1    33  0.57

> <Gold.Goldscore.Internal.Vdw.Weighted>
-33.9968

> <Gold.Goldscore.Internal.Torsion.Weighted>
-7.2827

> <Gold.Goldscore.External.Vdw.Weighted>
-70.8491

> <Gold.Goldscore.Internal.HBond.Weighted>
0.0000

> <Gold.Goldscore.External.HBond.Weighted>
7.1316

> <Gold.Goldscore.Internal.Correction.Weighted>
-30.9123

> <Gold.Protein.RotatedTorsions>
[ 5077 5068 5067 5065 ] final -160.43 input  179.94 | X-H torsion
[ 5157 5152 5151 5148 ] final  -76.88 input -179.92 | X-H torsion
[ 5185 5176 5175 5173 ] final  -14.25 input -179.99 | X-H torsion
[ 5712 5703 5702 5700 ] final  -99.61 input  180.00 | X-H torsion
[ 8036 8031 8030 8027 ] final  -41.19 input -179.94 | X-H torsion
[ 2749 2745 2743 2740 ] final -133.71 input  -60.05 | X-H torsion
[ 1366 1361 1360 1357 ] final  -53.80 input  -60.09 | X-H torsion
[ 2556 2551 2550 2547 ] final -125.11 input   59.97 | X-H torsion

> <Gold.Protein.ActiveResidues>
 PRO86   VAL89   HIS90   LEU93   THR94   ILE112  MET113  TYR115  VAL116  LEU117 
 THR118  SER119  ARG120  SER121  LEU123  ILE124  GLN192  SER194  PHE198  PHE201 
 ALA202  GLN203  PHE205  THR206  PHE209  PHE210  VAL228  ILE341  ILE343  VAL344 
 ILE345  GLU346  ASP347  TYR348  VAL349  GLN350  HIS351  LEU352  SER353  GLY354 
 TYR355  PHE357  LEU359  LYS360  GLU380  PHE381  ASN382  THR383  LEU384  TYR385 
 HIS386  TRP387  LEU390  VAL434  LEU507  ARG513  ALA516  ILE517  PHE518  GLY519 
 GLU520  THR521  MET522  VAL523  GLU524  VAL525  GLY526  ALA527  PRO528  PHE529 
 SER530  LEU531  LYS532  GLY533  LEU534  MET535  COH609 

> <Gold.Protein.RotatedAtoms>
   17.8461    7.7598    3.0425 H   0  0  0  0  0  0  0  0  0  0  0  0  # atno 1366 bound_to 1361
    4.4873   -8.7728    7.2545 H   0  0  0  0  0  0  0  0  0  0  0  0  # atno 2556 bound_to 2551
   -2.8577   -0.5189    0.8294 H   0  0  0  0  0  0  0  0  0  0  0  0  # atno 2749 bound_to 2745
    2.0914   -1.7897    3.7178 H   0  0  0  0  0  0  0  0  0  0  0  0  # atno 5077 bound_to 5068
   11.3639   -2.0464    9.2976 H   0  0  0  0  0  0  0  0  0  0  0  0  # atno 5157 bound_to 5152
   16.2283   -1.0180    4.7431 H   0  0  0  0  0  0  0  0  0  0  0  0  # atno 5185 bound_to 5176
    1.7543    0.2469    2.6811 H   0  0  0  0  0  0  0  0  0  0  0  0  # atno 5712 bound_to 5703
    5.7749    5.2138    3.5396 H   0  0  0  0  0  0  0  0  0  0  0  0  # atno 8036 bound_to 8031
    0.6275   -1.5473    3.9619 LP  0  0  0  0  0  0  0  0  0  0  0  0  # atno 8267 bound_to 5068
    1.3525   -2.9781    4.2683 LP  0  0  0  0  0  0  0  0  0  0  0  0  # atno 8268 bound_to 5068
   12.6971   -1.3507    9.2371 LP  0  0  0  0  0  0  0  0  0  0  0  0  # atno 8279 bound_to 5152
   12.5451   -2.9766    9.2304 LP  0  0  0  0  0  0  0  0  0  0  0  0  # atno 8280 bound_to 5152
   16.2769    0.4356    5.1217 LP  0  0  0  0  0  0  0  0  0  0  0  0  # atno 8281 bound_to 5176
   14.8925   -0.3297    4.7165 LP  0  0  0  0  0  0  0  0  0  0  0  0  # atno 8282 bound_to 5176
    3.1811   -0.0970    2.3577 LP  0  0  0  0  0  0  0  0  0  0  0  0  # atno 8283 bound_to 5703
    2.0849   -1.2117    2.8293 LP  0  0  0  0  0  0  0  0  0  0  0  0  # atno 8284 bound_to 5703
    6.0638    3.7470    3.6970 LP  0  0  0  0  0  0  0  0  0  0  0  0  # atno 8309 bound_to 8031
    4.6192    4.3173    3.1925 LP  0  0  0  0  0  0  0  0  0  0  0  0  # atno 8310 bound_to 8031
   -3.6292    0.0315   -0.3390 LP  0  0  0  0  0  0  0  0  0  0  0  0  # atno 8323 bound_to 2745
   -4.1593    0.1371    1.2020 LP  0  0  0  0  0  0  0  0  0  0  0  0  # atno 8324 bound_to 2745
   18.9010    6.6872    3.0720 LP  0  0  0  0  0  0  0  0  0  0  0  0  # atno 8335 bound_to 1361
   17.9484    6.9578    1.7735 LP  0  0  0  0  0  0  0  0  0  0  0  0  # atno 8336 bound_to 1361
    5.0212  -10.0373    6.6380 LP  0  0  0  0  0  0  0  0  0  0  0  0  # atno 8342 bound_to 2551
    5.1412   -9.7100    8.2333 LP  0  0  0  0  0  0  0  0  0  0  0  0  # atno 8343 bound_to 2551

