
013|LMW3_p|sdf|13|dock4
  -GOLD-   6 62223213D 1   1.00000     0.00000

 78 81  0  0  0  0  0  0  0  0  1 V2000
   10.4191    3.6623    8.2988 O   0  0  0  0  0  0  0  0  0  0  0  0
   11.6851    4.0029    7.7279 C   0  0  2  0  0  0  0  0  0  0  0  0
   11.4625    4.7550    6.4085 C   0  0  0  0  0  0  0  0  0  0  0  0
   12.5285    2.7397    7.5452 C   0  0  0  0  0  0  0  0  0  0  0  0
   10.9887    3.8134    5.3168 C   0  0  0  0  0  0  0  0  0  0  0  0
   12.0339    1.8463    6.3952 C   0  0  0  0  0  0  0  0  0  0  0  0
    9.7958    4.0125    4.7282 C   0  0  0  0  0  0  0  0  0  0  0  0
   11.8719    2.5895    5.0401 C   0  0  1  0  0  0  0  0  0  0  0  0
    9.1437    3.0368    3.8039 C   0  0  0  0  0  0  0  0  0  0  0  0
   11.2588    1.6630    3.9114 C   0  0  2  0  0  0  0  0  0  0  0  0
   13.2614    3.0578    4.5333 C   0  0  0  0  0  0  0  0  0  0  0  0
    9.7076    1.6168    3.9654 C   0  0  2  0  0  0  0  0  0  0  0  0
   11.8859    0.2462    3.8418 C   0  0  0  0  0  0  0  0  0  0  0  0
    9.1838    0.6964    2.8564 C   0  0  1  0  0  0  0  0  0  0  0  0
   11.2482   -0.6640    2.7781 C   0  0  0  0  0  0  0  0  0  0  0  0
    9.7213   -0.7512    2.9402 C   0  0  2  0  0  0  0  0  0  0  0  0
    7.6782    0.5207    2.7179 C   0  0  0  0  0  0  0  0  0  0  0  0
    8.9476   -1.3787    1.7396 C   0  0  2  0  0  0  0  0  0  0  0  0
    9.3680   -1.4704    4.2652 C   0  0  0  0  0  0  0  0  0  0  0  0
    7.5286   -0.7558    1.8774 C   0  0  0  0  0  0  0  0  0  0  0  0
    8.9046   -2.9227    1.6067 C   0  0  2  0  0  0  0  0  0  0  0  0
   10.2294   -3.5654    1.9462 C   0  0  0  0  0  0  0  0  0  0  0  0
    8.5298   -3.3493    0.1795 C   0  0  0  0  0  0  0  0  0  0  0  0
   10.3940   -4.4614    2.9336 C   0  0  0  0  0  0  0  0  0  0  0  0
   11.7161   -5.1260    3.2651 C   0  0  2  0  0  0  0  0  0  0  0  0
   11.4970   -6.5648    3.8207 C   0  0  0  0  0  0  0  0  0  0  0  0
   12.5469   -4.2040    4.1882 C   0  0  0  0  0  0  0  0  0  0  0  0
   10.7197   -7.4429    2.8271 C   0  0  0  0  0  0  0  0  0  0  0  0
   12.8200   -7.2642    4.1555 C   0  0  0  0  0  0  0  0  0  0  0  0
   13.9338   -3.8352    3.6750 C   0  0  0  0  0  0  0  0  0  0  0  0
    9.9356    4.4735    8.5204 H   0  0  0  0  0  0  0  0  0  0  0  0
   12.2270    4.6519    8.3836 H   0  0  0  0  0  0  0  0  0  0  0  0
   12.3831    5.2076    6.1044 H   0  0  0  0  0  0  0  0  0  0  0  0
   10.7108    5.5004    6.5646 H   0  0  0  0  0  0  0  0  0  0  0  0
   12.4969    2.1747    8.4533 H   0  0  0  0  0  0  0  0  0  0  0  0
   13.5227    3.0518    7.3023 H   0  0  0  0  0  0  0  0  0  0  0  0
   11.0837    1.4389    6.6708 H   0  0  0  0  0  0  0  0  0  0  0  0
   12.7791    1.0928    6.2471 H   0  0  0  0  0  0  0  0  0  0  0  0
    9.2996    4.8952    4.9277 H   0  0  0  0  0  0  0  0  0  0  0  0
    9.3031    3.3581    2.7958 H   0  0  0  0  0  0  0  0  0  0  0  0
    8.1012    3.0049    4.0429 H   0  0  0  0  0  0  0  0  0  0  0  0
   11.5309    2.1332    2.9895 H   0  0  0  0  0  0  0  0  0  0  0  0
   13.8830    2.2047    4.3576 H   0  0  0  0  0  0  0  0  0  0  0  0
   13.7171    3.6852    5.2706 H   0  0  0  0  0  0  0  0  0  0  0  0
   13.1426    3.6063    3.6223 H   0  0  0  0  0  0  0  0  0  0  0  0
    9.3895    1.2293    4.9107 H   0  0  0  0  0  0  0  0  0  0  0  0
   11.7713   -0.2207    4.7977 H   0  0  0  0  0  0  0  0  0  0  0  0
   12.9125    0.3732    3.5681 H   0  0  0  0  0  0  0  0  0  0  0  0
    9.5509    1.2485    2.0166 H   0  0  0  0  0  0  0  0  0  0  0  0
   11.6626   -1.6462    2.8697 H   0  0  0  0  0  0  0  0  0  0  0  0
   11.4566   -0.2462    1.8154 H   0  0  0  0  0  0  0  0  0  0  0  0
    7.2420    1.3594    2.2167 H   0  0  0  0  0  0  0  0  0  0  0  0
    7.1831    0.4512    3.6639 H   0  0  0  0  0  0  0  0  0  0  0  0
    9.4685   -1.1517    0.8329 H   0  0  0  0  0  0  0  0  0  0  0  0
    8.3049   -1.4964    4.3844 H   0  0  0  0  0  0  0  0  0  0  0  0
    9.8061   -0.9416    5.0858 H   0  0  0  0  0  0  0  0  0  0  0  0
    9.7488   -2.4700    4.2410 H   0  0  0  0  0  0  0  0  0  0  0  0
    7.1374   -0.5156    0.9109 H   0  0  0  0  0  0  0  0  0  0  0  0
    6.8536   -1.4429    2.3433 H   0  0  0  0  0  0  0  0  0  0  0  0
    8.1616   -3.2522    2.3027 H   0  0  0  0  0  0  0  0  0  0  0  0
   11.0555   -3.3007    1.3873 H   0  0  0  0  0  0  0  0  0  0  0  0
    7.5070   -3.6629    0.1580 H   0  0  0  0  0  0  0  0  0  0  0  0
    9.1579   -4.1596   -0.1270 H   0  0  0  0  0  0  0  0  0  0  0  0
    8.6636   -2.5227   -0.4866 H   0  0  0  0  0  0  0  0  0  0  0  0
    9.5699   -4.7129    3.5015 H   0  0  0  0  0  0  0  0  0  0  0  0
   12.2927   -5.2604    2.3738 H   0  0  0  0  0  0  0  0  0  0  0  0
   10.9274   -6.4460    4.7187 H   0  0  0  0  0  0  0  0  0  0  0  0
   12.6651   -4.7000    5.1289 H   0  0  0  0  0  0  0  0  0  0  0  0
   12.0034   -3.2844    4.2493 H   0  0  0  0  0  0  0  0  0  0  0  0
   11.3050   -7.5846    1.9426 H   0  0  0  0  0  0  0  0  0  0  0  0
    9.7982   -6.9627    2.5718 H   0  0  0  0  0  0  0  0  0  0  0  0
   10.5148   -8.3927    3.2751 H   0  0  0  0  0  0  0  0  0  0  0  0
   13.3946   -7.3873    3.2614 H   0  0  0  0  0  0  0  0  0  0  0  0
   12.6179   -8.2234    4.5845 H   0  0  0  0  0  0  0  0  0  0  0  0
   13.3707   -6.6699    4.8544 H   0  0  0  0  0  0  0  0  0  0  0  0
   13.8417   -3.1431    2.8643 H   0  0  0  0  0  0  0  0  0  0  0  0
   14.4348   -4.7176    3.3355 H   0  0  0  0  0  0  0  0  0  0  0  0
   14.4987   -3.3861    4.4651 H   0  0  0  0  0  0  0  0  0  0  0  0
  1  2  1  0  0  0  0
  1 31  1  0  0  0  0
  2  3  1  0  0  0  0
  2  4  1  0  0  0  0
  2 32  1  0  0  0  0
  3  5  1  0  0  0  0
  3 33  1  0  0  0  0
  3 34  1  0  0  0  0
  4  6  1  0  0  0  0
  4 35  1  0  0  0  0
  4 36  1  0  0  0  0
  5  7  2  0  0  0  0
  5  8  1  0  0  0  0
  6  8  1  0  0  0  0
  6 37  1  0  0  0  0
  6 38  1  0  0  0  0
  7  9  1  0  0  0  0
  7 39  1  0  0  0  0
  8 10  1  0  0  0  0
  8 11  1  0  0  0  0
  9 12  1  0  0  0  0
  9 40  1  0  0  0  0
  9 41  1  0  0  0  0
 10 13  1  0  0  0  0
 10 12  1  0  0  0  0
 10 42  1  0  0  0  0
 11 43  1  0  0  0  0
 11 44  1  0  0  0  0
 11 45  1  0  0  0  0
 12 14  1  0  0  0  0
 12 46  1  0  0  0  0
 13 15  1  0  0  0  0
 13 47  1  0  0  0  0
 13 48  1  0  0  0  0
 14 16  1  0  0  0  0
 14 17  1  0  0  0  0
 14 49  1  0  0  0  0
 15 16  1  0  0  0  0
 15 50  1  0  0  0  0
 15 51  1  0  0  0  0
 16 18  1  0  0  0  0
 16 19  1  0  0  0  0
 17 20  1  0  0  0  0
 17 52  1  0  0  0  0
 17 53  1  0  0  0  0
 18 21  1  0  0  0  0
 18 20  1  0  0  0  0
 18 54  1  0  0  0  0
 19 55  1  0  0  0  0
 19 56  1  0  0  0  0
 19 57  1  0  0  0  0
 20 58  1  0  0  0  0
 20 59  1  0  0  0  0
 21 22  1  0  0  0  0
 21 23  1  0  0  0  0
 21 60  1  0  0  0  0
 22 24  2  0  0  0  0
 22 61  1  0  0  0  0
 23 62  1  0  0  0  0
 23 63  1  0  0  0  0
 23 64  1  0  0  0  0
 24 25  1  0  0  0  0
 24 65  1  0  0  0  0
 25 26  1  0  0  0  0
 25 27  1  0  0  0  0
 25 66  1  0  0  0  0
 26 28  1  0  0  0  0
 26 29  1  0  0  0  0
 26 67  1  0  0  0  0
 27 30  1  0  0  0  0
 27 68  1  0  0  0  0
 27 69  1  0  0  0  0
 28 70  1  0  0  0  0
 28 71  1  0  0  0  0
 28 72  1  0  0  0  0
 29 73  1  0  0  0  0
 29 74  1  0  0  0  0
 29 75  1  0  0  0  0
 30 76  1  0  0  0  0
 30 77  1  0  0  0  0
 30 78  1  0  0  0  0
M  END
>  <Code-name>
013

>  <Compound>
24-ethylcholesta-5,22-dien-3Î²-ol

>  <Specie>
Phellinus baummi

>  <Reference>
ZHANG et al., 2017

>  <Organism>
Antitumoral Activity

>  <Smiles>
CC[C@@H](C(C)C)/C=C/[C@H](C)[C@@H](CC1)[C@@](C)(CC2)[C@@H]1[C@H]1[C@H]2[C@](C)(CC[C@@H](C2)O)C2=CC1

>  <MMFF94 Energy>
105.75

>  <Total Molweight>
412.699

>  <Molweight>
412.699

>  <Monoisotopic Mass>
412.370515

>  <cLogP>
7.603

>  <cLogS>
-6.441

>  <H-Acceptors>
1

>  <H-Donors>
1

>  <Total Surface Area>
335.28

>  <Relative PSA>
0.039072

>  <Polar Surface Area>
20.23

>  <Druglikeness>
1.2217

>  <Mutagenic>
none

>  <Tumorigenic>
none

>  <Reproductive Effective>
none

>  <Irritant>
none

>  <Nasty Functions>


>  <Shape Index>
0.53333

>  <Molecular Flexibility>
0.32884

>  <Molecular Complexity>
0.92506

>  <Fragments>
1

>  <Non-H Atoms>
30

>  <Non-C/H Atoms>
1

>  <Metal-Atoms>
0

>  <Electronegative Atoms>
1

>  <Stereo Centers>
9

>  <Rotatable Bonds>
5

>  <Rings Closures>
4

>  <Small Rings>
4

>  <Aromatic Rings>
0

>  <Aromatic Atoms>
0

>  <sp3-Atoms>
26

>  <Symmetric atoms>
1

>  <Amides>
0

>  <Amines>
0

>  <Alkyl-Amines>
0

>  <Aromatic Amines>
0

>  <Aromatic Nitrogens>
0

>  <Basic Nitrogens>
0

>  <Acidic Oxygens>
0

>  <Stereo Configuration>
this enantiomer

> <Gold.Version>
5.8.1

> <Gold.Id.Protein>
ID_2|Prot_COX2_5IKQ_Alig|mol2

> <Gold.Goldscore.Fitness>
-24.8109

> <Gold.Goldscore.Internal.Vdw>
-22.3104

> <Gold.Goldscore.Internal.Torsion>
-7.1041

> <Gold.Goldscore.External.Vdw>
-7.8596

> <Gold.Goldscore.Internal.HBond>
0.0000

> <Gold.Goldscore.External.HBond>
0.0000

> <Gold.Goldscore.Internal.Correction>
-15.4105

> <Gold.Goldscore.Internal.Vdw.Weighted>
-22.3104

> <Gold.Goldscore.Internal.Torsion.Weighted>
-7.1041

> <Gold.Goldscore.External.Vdw.Weighted>
-10.8069

> <Gold.Goldscore.Internal.HBond.Weighted>
0.0000

> <Gold.Goldscore.External.HBond.Weighted>
0.0000

> <Gold.Goldscore.Internal.Correction.Weighted>
-15.4105

> <Gold.Protein.RotatedTorsions>
[ 5077 5068 5067 5065 ] final  145.25 input  179.94 | X-H torsion
[ 5157 5152 5151 5148 ] final -159.93 input -179.92 | X-H torsion
[ 5185 5176 5175 5173 ] final   91.51 input -179.99 | X-H torsion
[ 5712 5703 5702 5700 ] final  115.49 input  180.00 | X-H torsion
[ 8036 8031 8030 8027 ] final  173.04 input -179.94 | X-H torsion
[ 2749 2745 2743 2740 ] final  121.18 input  -60.05 | X-H torsion
[ 1366 1361 1360 1357 ] final   70.90 input  -60.09 | X-H torsion
[ 2556 2551 2550 2547 ] final   83.28 input   59.97 | X-H torsion

> <Gold.Protein.ActiveResidues>
 PRO86   VAL89   HIS90   LEU93   THR94   ILE112  MET113  TYR115  VAL116  LEU117 
 THR118  SER119  ARG120  SER121  LEU123  ILE124  GLN192  SER194  PHE198  PHE201 
 ALA202  GLN203  PHE205  THR206  PHE209  PHE210  VAL228  ILE341  ILE343  VAL344 
 ILE345  GLU346  ASP347  TYR348  VAL349  GLN350  HIS351  LEU352  SER353  GLY354 
 TYR355  PHE357  LEU359  LYS360  GLU380  PHE381  ASN382  THR383  LEU384  TYR385 
 HIS386  TRP387  LEU390  VAL434  LEU507  ARG513  ALA516  ILE517  PHE518  GLY519 
 GLU520  THR521  MET522  VAL523  GLU524  VAL525  GLY526  ALA527  PRO528  PHE529 
 SER530  LEU531  LYS532  GLY533  LEU534  MET535  COH609 

> <Gold.Protein.RotatedAtoms>
   18.0641    6.9770    1.9023 H   0  0  0  0  0  0  0  0  0  0  0  0  # atno 1366 bound_to 1361
    5.1112  -10.1648    7.1085 H   0  0  0  0  0  0  0  0  0  0  0  0  # atno 2556 bound_to 2551
   -3.4104   -0.0634   -0.2001 H   0  0  0  0  0  0  0  0  0  0  0  0  # atno 2749 bound_to 2745
    1.5225   -1.3474    3.7121 H   0  0  0  0  0  0  0  0  0  0  0  0  # atno 5077 bound_to 5068
   12.1265   -1.3292    9.2415 H   0  0  0  0  0  0  0  0  0  0  0  0  # atno 5157 bound_to 5152
   15.0696   -0.5320    4.7278 H   0  0  0  0  0  0  0  0  0  0  0  0  # atno 5185 bound_to 5176
    3.0429   -0.4745    2.4026 H   0  0  0  0  0  0  0  0  0  0  0  0  # atno 5712 bound_to 5703
    5.6889    3.7093    3.5210 H   0  0  0  0  0  0  0  0  0  0  0  0  # atno 8036 bound_to 8031
    0.5461   -2.3512    4.2601 LP  0  0  0  0  0  0  0  0  0  0  0  0  # atno 8267 bound_to 5068
    2.1151   -2.7039    3.9768 LP  0  0  0  0  0  0  0  0  0  0  0  0  # atno 8268 bound_to 5068
   12.9783   -2.5691    9.1985 LP  0  0  0  0  0  0  0  0  0  0  0  0  # atno 8279 bound_to 5152
   11.3518   -2.6160    9.3361 LP  0  0  0  0  0  0  0  0  0  0  0  0  # atno 8280 bound_to 5152
   16.4968   -1.0027    4.7377 LP  0  0  0  0  0  0  0  0  0  0  0  0  # atno 8281 bound_to 5176
   16.0638    0.5250    5.1189 LP  0  0  0  0  0  0  0  0  0  0  0  0  # atno 8282 bound_to 5176
    1.7338   -1.0151    2.9052 LP  0  0  0  0  0  0  0  0  0  0  0  0  # atno 8283 bound_to 5703
    1.9857    0.5722    2.6161 LP  0  0  0  0  0  0  0  0  0  0  0  0  # atno 8284 bound_to 5703
    4.6434    4.7400    3.1977 LP  0  0  0  0  0  0  0  0  0  0  0  0  # atno 8309 bound_to 8031
    6.1429    5.1293    3.7141 LP  0  0  0  0  0  0  0  0  0  0  0  0  # atno 8310 bound_to 8031
   -4.2659    0.2250    1.0034 LP  0  0  0  0  0  0  0  0  0  0  0  0  # atno 8323 bound_to 2745
   -2.8606   -0.6020    1.0926 LP  0  0  0  0  0  0  0  0  0  0  0  0  # atno 8324 bound_to 2745
   17.7001    7.8497    3.0727 LP  0  0  0  0  0  0  0  0  0  0  0  0  # atno 8335 bound_to 1361
   18.8887    6.7317    3.1367 LP  0  0  0  0  0  0  0  0  0  0  0  0  # atno 8336 bound_to 1361
    4.9310   -9.2410    8.2825 LP  0  0  0  0  0  0  0  0  0  0  0  0  # atno 8342 bound_to 2551
    4.4849   -8.8409    6.7635 LP  0  0  0  0  0  0  0  0  0  0  0  0  # atno 8343 bound_to 2551

