
141|LMW3_p|sdf|141|dock1
  -GOLD-   6 92213 43D 1   1.00000     0.00000

 82 86  0  0  0  0  0  0  0  0  1 V2000
   13.4403    4.7059    8.1608 O   0  0  0  0  0  0  0  0  0  0  0  0
   12.5607    3.8401    7.4436 C   0  0  2  0  0  0  0  0  0  0  0  0
   13.3230    2.6452    6.7958 C   0  0  0  0  0  0  0  0  0  0  0  0
   11.8064    4.7023    6.4385 C   0  0  0  0  0  0  0  0  0  0  0  0
   12.3155    1.8494    5.8812 C   0  0  1  0  0  0  0  0  0  0  0  0
   14.5919    3.1209    6.0609 C   0  0  0  0  0  0  0  0  0  0  0  0
   13.8163    1.7253    7.9482 C   0  0  0  0  0  0  0  0  0  0  0  0
   10.8519    3.8901    5.5674 C   0  0  0  0  0  0  0  0  0  0  0  0
   11.5225    2.6987    4.8156 C   0  0  2  0  0  0  0  0  0  0  0  0
   12.8872    0.5623    5.2530 C   0  0  0  0  0  0  0  0  0  0  0  0
   10.3788    1.7576    4.2202 C   0  0  2  0  0  0  0  0  0  0  0  0
   12.4184    3.2974    3.7049 C   0  0  0  0  0  0  0  0  0  0  0  0
   11.7701   -0.3305    4.7004 C   0  0  0  0  0  0  0  0  0  0  0  0
   10.8437    0.3523    3.6566 C   0  0  1  0  0  0  0  0  0  0  0  0
    9.4050    2.4609    3.2470 C   0  0  0  0  0  0  0  0  0  0  0  0
    9.5245   -0.5546    3.3542 C   0  0  1  0  0  0  0  0  0  0  0  0
   11.6847    0.5153    2.3544 C   0  0  0  0  0  0  0  0  0  0  0  0
    8.2023    1.5976    2.8527 C   0  0  0  0  0  0  0  0  0  0  0  0
    8.6097    0.2205    2.3165 C   0  0  2  0  0  0  0  0  0  0  0  0
    9.8896   -1.9772    2.7935 C   0  0  0  0  0  0  0  0  0  0  0  0
    8.7231   -0.8325    4.6740 C   0  0  0  0  0  0  0  0  0  0  0  0
    7.4215   -0.6554    1.8602 C   0  0  2  0  0  0  0  0  0  0  0  0
    8.6957   -2.7807    2.2383 C   0  0  0  0  0  0  0  0  0  0  0  0
    7.9157   -1.9682    1.1929 C   0  0  1  0  0  0  0  0  0  0  0  0
    6.3860   -0.1152    0.8461 C   0  0  2  0  0  0  0  0  0  0  0  0
    6.5631   -2.5868    0.8058 C   0  0  0  0  0  0  0  0  0  0  0  0
    8.7795   -1.7580   -0.0880 C   0  0  0  0  0  0  0  0  0  0  0  0
    5.3278    0.8388    1.3746 C   0  0  0  0  0  0  0  0  0  0  0  0
    5.7515   -1.4037    0.2524 C   0  0  0  0  0  0  0  0  0  0  0  0
    8.0749   -1.0111   -1.0763 O   0  0  0  0  0  0  0  0  0  0  0  0
    5.0220    1.9660    0.7085 C   0  0  0  0  0  0  0  0  0  0  0  0
    4.6076    0.4880    2.6498 C   0  0  0  0  0  0  0  0  0  0  0  0
   12.9366    5.4526    8.5206 H   0  0  0  0  0  0  0  0  0  0  0  0
   11.8584    3.3735    8.1024 H   0  0  0  0  0  0  0  0  0  0  0  0
   12.5169    5.1908    5.8049 H   0  0  0  0  0  0  0  0  0  0  0  0
   11.2204    5.4066    6.9913 H   0  0  0  0  0  0  0  0  0  0  0  0
   11.5867    1.5491    6.6047 H   0  0  0  0  0  0  0  0  0  0  0  0
   14.9732    2.3249    5.4558 H   0  0  0  0  0  0  0  0  0  0  0  0
   15.3320    3.4099    6.7775 H   0  0  0  0  0  0  0  0  0  0  0  0
   14.3514    3.9578    5.4392 H   0  0  0  0  0  0  0  0  0  0  0  0
   12.9983    1.1390    8.3116 H   0  0  0  0  0  0  0  0  0  0  0  0
   14.2048    2.3268    8.7433 H   0  0  0  0  0  0  0  0  0  0  0  0
   14.5853    1.0771    7.5829 H   0  0  0  0  0  0  0  0  0  0  0  0
   10.4226    4.5463    4.8393 H   0  0  0  0  0  0  0  0  0  0  0  0
   10.1236    3.4649    6.2260 H   0  0  0  0  0  0  0  0  0  0  0  0
   13.4291    0.0207    5.9998 H   0  0  0  0  0  0  0  0  0  0  0  0
   13.5310    0.8380    4.4440 H   0  0  0  0  0  0  0  0  0  0  0  0
    9.8276    1.5296    5.1084 H   0  0  0  0  0  0  0  0  0  0  0  0
   13.3600    2.7892    3.6937 H   0  0  0  0  0  0  0  0  0  0  0  0
   12.5769    4.3380    3.8967 H   0  0  0  0  0  0  0  0  0  0  0  0
   11.9377    3.1787    2.7563 H   0  0  0  0  0  0  0  0  0  0  0  0
   11.1647   -0.6524    5.5219 H   0  0  0  0  0  0  0  0  0  0  0  0
   12.2545   -1.1365    4.1901 H   0  0  0  0  0  0  0  0  0  0  0  0
    9.9422    2.7188    2.3583 H   0  0  0  0  0  0  0  0  0  0  0  0
    9.0209    3.3212    3.7543 H   0  0  0  0  0  0  0  0  0  0  0  0
   12.5421    1.1225    2.5571 H   0  0  0  0  0  0  0  0  0  0  0  0
   11.0870    0.9828    1.5999 H   0  0  0  0  0  0  0  0  0  0  0  0
   12.0023   -0.4474    2.0121 H   0  0  0  0  0  0  0  0  0  0  0  0
    7.6481    2.1095    2.0940 H   0  0  0  0  0  0  0  0  0  0  0  0
    7.6165    1.4396    3.7340 H   0  0  0  0  0  0  0  0  0  0  0  0
    9.1804    0.4165    1.4329 H   0  0  0  0  0  0  0  0  0  0  0  0
   10.3320   -2.5437    3.5862 H   0  0  0  0  0  0  0  0  0  0  0  0
   10.5523   -1.8147    1.9693 H   0  0  0  0  0  0  0  0  0  0  0  0
    7.8468   -1.4027    4.4459 H   0  0  0  0  0  0  0  0  0  0  0  0
    8.4375    0.0970    5.1204 H   0  0  0  0  0  0  0  0  0  0  0  0
    9.3383   -1.3815    5.3559 H   0  0  0  0  0  0  0  0  0  0  0  0
    6.9229   -0.7401    2.8031 H   0  0  0  0  0  0  0  0  0  0  0  0
    8.0393   -3.0325    3.0450 H   0  0  0  0  0  0  0  0  0  0  0  0
    9.0722   -3.6647    1.7676 H   0  0  0  0  0  0  0  0  0  0  0  0
    6.8828    0.5134    0.1368 H   0  0  0  0  0  0  0  0  0  0  0  0
    6.0807   -3.0104    1.6618 H   0  0  0  0  0  0  0  0  0  0  0  0
    6.6639   -3.3819    0.0969 H   0  0  0  0  0  0  0  0  0  0  0  0
    9.0384   -2.7137   -0.4935 H   0  0  0  0  0  0  0  0  0  0  0  0
    9.6569   -1.2097    0.1850 H   0  0  0  0  0  0  0  0  0  0  0  0
    5.8079   -1.3846   -0.8160 H   0  0  0  0  0  0  0  0  0  0  0  0
    4.7188   -1.4846    0.5203 H   0  0  0  0  0  0  0  0  0  0  0  0
    8.6093   -0.9590   -1.8841 H   0  0  0  0  0  0  0  0  0  0  0  0
    5.5194    2.2004   -0.1648 H   0  0  0  0  0  0  0  0  0  0  0  0
    4.2898    2.5968    1.0706 H   0  0  0  0  0  0  0  0  0  0  0  0
    3.6975    1.0476    2.7110 H   0  0  0  0  0  0  0  0  0  0  0  0
    5.2294    0.7256    3.4876 H   0  0  0  0  0  0  0  0  0  0  0  0
    4.3840   -0.5584    2.6570 H   0  0  0  0  0  0  0  0  0  0  0  0
  1  2  1  0  0  0  0
  1 33  1  0  0  0  0
  2  3  1  0  0  0  0
  2  4  1  0  0  0  0
  2 34  1  0  0  0  0
  3  5  1  0  0  0  0
  3  6  1  0  0  0  0
  3  7  1  0  0  0  0
  4  8  1  0  0  0  0
  4 35  1  0  0  0  0
  4 36  1  0  0  0  0
  5  9  1  0  0  0  0
  5 10  1  0  0  0  0
  5 37  1  0  0  0  0
  6 38  1  0  0  0  0
  6 39  1  0  0  0  0
  6 40  1  0  0  0  0
  7 41  1  0  0  0  0
  7 42  1  0  0  0  0
  7 43  1  0  0  0  0
  8  9  1  0  0  0  0
  8 44  1  0  0  0  0
  8 45  1  0  0  0  0
  9 11  1  0  0  0  0
  9 12  1  0  0  0  0
 10 13  1  0  0  0  0
 10 46  1  0  0  0  0
 10 47  1  0  0  0  0
 11 14  1  0  0  0  0
 11 15  1  0  0  0  0
 11 48  1  0  0  0  0
 12 49  1  0  0  0  0
 12 50  1  0  0  0  0
 12 51  1  0  0  0  0
 13 14  1  0  0  0  0
 13 52  1  0  0  0  0
 13 53  1  0  0  0  0
 14 16  1  0  0  0  0
 14 17  1  0  0  0  0
 15 18  1  0  0  0  0
 15 54  1  0  0  0  0
 15 55  1  0  0  0  0
 16 19  1  0  0  0  0
 16 20  1  0  0  0  0
 16 21  1  0  0  0  0
 17 56  1  0  0  0  0
 17 57  1  0  0  0  0
 17 58  1  0  0  0  0
 18 19  1  0  0  0  0
 18 59  1  0  0  0  0
 18 60  1  0  0  0  0
 19 22  1  0  0  0  0
 19 61  1  0  0  0  0
 20 23  1  0  0  0  0
 20 62  1  0  0  0  0
 20 63  1  0  0  0  0
 21 64  1  0  0  0  0
 21 65  1  0  0  0  0
 21 66  1  0  0  0  0
 22 24  1  0  0  0  0
 22 25  1  0  0  0  0
 22 67  1  0  0  0  0
 23 24  1  0  0  0  0
 23 68  1  0  0  0  0
 23 69  1  0  0  0  0
 24 26  1  0  0  0  0
 24 27  1  0  0  0  0
 25 28  1  0  0  0  0
 25 29  1  0  0  0  0
 25 70  1  0  0  0  0
 26 29  1  0  0  0  0
 26 71  1  0  0  0  0
 26 72  1  0  0  0  0
 27 30  1  0  0  0  0
 27 73  1  0  0  0  0
 27 74  1  0  0  0  0
 28 31  2  0  0  0  0
 28 32  1  0  0  0  0
 29 75  1  0  0  0  0
 29 76  1  0  0  0  0
 30 77  1  0  0  0  0
 31 78  1  0  0  0  0
 31 79  1  0  0  0  0
 32 80  1  0  0  0  0
 32 81  1  0  0  0  0
 32 82  1  0  0  0  0
M  END
>  <Code-name>
141

>  <Compound>
betulin

>  <Specie>
Piptoporus betulinus

>  <Reference>
GrÃ¼ndemann (2020)

>  <Organism>
Antitumoral Activity

>  <Smiles>
CC(C)([C@H](CC1)[C@](C)(CC2)[C@@H](CC3)[C@]1(C)[C@@]1(C)[C@H]3[C@@H]([C@@H](CC3)C(C)=C)[C@@]3(CO)CC1)[C@H]2O

>  <MMFF94 Energy>
161.98

>  <Total Molweight>
442.725

>  <Molweight>
442.725

>  <Monoisotopic Mass>
442.381080

>  <cLogP>
6.7202

>  <cLogS>
-6.296

>  <H-Acceptors>
2

>  <H-Donors>
2

>  <Total Surface Area>
333.42

>  <Relative PSA>
0.07858

>  <Polar Surface Area>
40.46

>  <Druglikeness>
-23.933

>  <Mutagenic>
none

>  <Tumorigenic>
none

>  <Reproductive Effective>
none

>  <Irritant>
none

>  <Nasty Functions>


>  <Shape Index>
0.40625

>  <Molecular Flexibility>
0.21459

>  <Molecular Complexity>
1.0035

>  <Fragments>
1

>  <Non-H Atoms>
32

>  <Non-C/H Atoms>
2

>  <Metal-Atoms>
0

>  <Electronegative Atoms>
2

>  <Stereo Centers>
10

>  <Rotatable Bonds>
2

>  <Rings Closures>
5

>  <Small Rings>
5

>  <Aromatic Rings>
0

>  <Aromatic Atoms>
0

>  <sp3-Atoms>
30

>  <Symmetric atoms>
1

>  <Amides>
0

>  <Amines>
0

>  <Alkyl-Amines>
0

>  <Aromatic Amines>
0

>  <Aromatic Nitrogens>
0

>  <Basic Nitrogens>
0

>  <Acidic Oxygens>
0

>  <Stereo Configuration>
this enantiomer

> <Gold.Version>
5.8.1

> <Gold.Id.Protein>
ID_2|Prot_COX2_5IKQ_Alig|mol2

> <Gold.Goldscore.Fitness>
-81.7092

> <Gold.Goldscore.Internal.Vdw>
-57.2869

> <Gold.Goldscore.Internal.Torsion>
-4.0739

> <Gold.Goldscore.External.Vdw>
-58.6880

> <Gold.Goldscore.Internal.HBond>
0.0000

> <Gold.Goldscore.External.HBond>
0.1399

> <Gold.Goldscore.Internal.Correction>
-60.2076

> <Gold.Goldscore.Hbonds>
donor molecule, donor type, donor heavy atom, donor atom, acceptor molecule, acceptor atom, score
      L1  H    30    77       P1  7914  0.07

> <Gold.Goldscore.Internal.Vdw.Weighted>
-57.2869

> <Gold.Goldscore.Internal.Torsion.Weighted>
-4.0739

> <Gold.Goldscore.External.Vdw.Weighted>
-80.6960

> <Gold.Goldscore.Internal.HBond.Weighted>
0.0000

> <Gold.Goldscore.External.HBond.Weighted>
0.1399

> <Gold.Goldscore.Internal.Correction.Weighted>
-60.2076

> <Gold.Protein.RotatedTorsions>
[ 5077 5068 5067 5065 ] final    0.77 input  179.94 | X-H torsion
[ 5157 5152 5151 5148 ] final -137.02 input -179.92 | X-H torsion
[ 5185 5176 5175 5173 ] final   65.22 input -179.99 | X-H torsion
[ 5712 5703 5702 5700 ] final  -14.64 input  180.00 | X-H torsion
[ 8036 8031 8030 8027 ] final  -85.00 input -179.94 | X-H torsion
[ 2749 2745 2743 2740 ] final  -71.23 input  -60.05 | X-H torsion
[ 1366 1361 1360 1357 ] final  159.05 input  -60.09 | X-H torsion
[ 2556 2551 2550 2547 ] final  105.52 input   59.97 | X-H torsion

> <Gold.Protein.ActiveResidues>
 PRO86   VAL89   HIS90   LEU93   THR94   ILE112  MET113  TYR115  VAL116  LEU117 
 THR118  SER119  ARG120  SER121  LEU123  ILE124  GLN192  SER194  PHE198  PHE201 
 ALA202  GLN203  PHE205  THR206  PHE209  PHE210  VAL228  ILE341  ILE343  VAL344 
 ILE345  GLU346  ASP347  TYR348  VAL349  GLN350  HIS351  LEU352  SER353  GLY354 
 TYR355  PHE357  LEU359  LYS360  GLU380  PHE381  ASN382  THR383  LEU384  TYR385 
 HIS386  TRP387  LEU390  VAL434  LEU507  ARG513  ALA516  ILE517  PHE518  GLY519 
 GLU520  THR521  MET522  VAL523  GLU524  VAL525  GLY526  ALA527  PRO528  PHE529 
 SER530  LEU531  LYS532  GLY533  LEU534  MET535  COH609 

> <Gold.Protein.RotatedAtoms>
   18.7963    6.6446    2.6521 H   0  0  0  0  0  0  0  0  0  0  0  0  # atno 1366 bound_to 1361
    5.0089  -10.0401    6.8499 H   0  0  0  0  0  0  0  0  0  0  0  0  # atno 2556 bound_to 2551
   -3.4266   -0.2581    1.3582 H   0  0  0  0  0  0  0  0  0  0  0  0  # atno 2749 bound_to 2745
    0.8765   -2.5708    4.3007 H   0  0  0  0  0  0  0  0  0  0  0  0  # atno 5077 bound_to 5068
   11.8216   -1.4003    9.2665 H   0  0  0  0  0  0  0  0  0  0  0  0  # atno 5157 bound_to 5152
   15.2401   -0.8403    4.6620 H   0  0  0  0  0  0  0  0  0  0  0  0  # atno 5185 bound_to 5176
    1.7213   -0.8061    2.8337 H   0  0  0  0  0  0  0  0  0  0  0  0  # atno 5712 bound_to 5703
    6.1849    4.8176    3.6845 H   0  0  0  0  0  0  0  0  0  0  0  0  # atno 8036 bound_to 8031
    2.2879   -2.3767    3.8194 LP  0  0  0  0  0  0  0  0  0  0  0  0  # atno 8267 bound_to 5068
    1.1469   -1.2134    3.7127 LP  0  0  0  0  0  0  0  0  0  0  0  0  # atno 8268 bound_to 5068
   13.0877   -2.2107    9.1936 LP  0  0  0  0  0  0  0  0  0  0  0  0  # atno 8279 bound_to 5152
   11.6071   -2.8893    9.3111 LP  0  0  0  0  0  0  0  0  0  0  0  0  # atno 8280 bound_to 5152
   16.7178   -0.6578    4.8664 LP  0  0  0  0  0  0  0  0  0  0  0  0  # atno 8281 bound_to 5176
   15.6382    0.5505    5.0693 LP  0  0  0  0  0  0  0  0  0  0  0  0  # atno 8282 bound_to 5176
    2.1421    0.6114    2.5651 LP  0  0  0  0  0  0  0  0  0  0  0  0  # atno 8283 bound_to 5703
    3.1636   -0.6563    2.4388 LP  0  0  0  0  0  0  0  0  0  0  0  0  # atno 8284 bound_to 5703
    5.4292    3.5345    3.4788 LP  0  0  0  0  0  0  0  0  0  0  0  0  # atno 8309 bound_to 8031
    4.7621    5.0052    3.2368 LP  0  0  0  0  0  0  0  0  0  0  0  0  # atno 8310 bound_to 8031
   -2.8491   -0.4634   -0.0158 LP  0  0  0  0  0  0  0  0  0  0  0  0  # atno 8323 bound_to 2745
   -4.2580    0.3197    0.2455 LP  0  0  0  0  0  0  0  0  0  0  0  0  # atno 8324 bound_to 2745
   17.6694    7.2852    1.8881 LP  0  0  0  0  0  0  0  0  0  0  0  0  # atno 8335 bound_to 1361
   18.0434    7.6938    3.4243 LP  0  0  0  0  0  0  0  0  0  0  0  0  # atno 8336 bound_to 1361
    5.0840   -9.5711    8.2777 LP  0  0  0  0  0  0  0  0  0  0  0  0  # atno 8342 bound_to 2551
    4.4543   -8.6600    7.0777 LP  0  0  0  0  0  0  0  0  0  0  0  0  # atno 8343 bound_to 2551

