
142|LMW3_p|sdf|142|dock3
  -GOLD-   6 92213 63D 1   1.00000     0.00000

 80 84  0  0  0  0  0  0  0  0  2 V2000
    8.9777   -0.7213   -0.6183 O   0  0  0  0  0  0  0  0  0  0  0  0
    8.7233   -1.7504   -0.0166 C   0  0  0  0  0  0  0  0  0  0  0  0
    9.1597   -2.9277   -0.5116 O   0  5  0  0  0  0  0  0  0  0  0  0
    7.9096   -1.9113    1.2789 C   0  0  2  0  0  0  0  0  0  0  0  0
    7.4451   -0.5915    1.9418 C   0  0  1  0  0  0  0  0  0  0  0  0
    8.7270   -2.7202    2.2927 C   0  0  0  0  0  0  0  0  0  0  0  0
    6.5547   -2.5168    0.8957 C   0  0  0  0  0  0  0  0  0  0  0  0
    8.6448    0.2787    2.3835 C   0  0  2  0  0  0  0  0  0  0  0  0
    6.3918   -0.0432    0.9496 C   0  0  1  0  0  0  0  0  0  0  0  0
    9.9378   -1.9053    2.7927 C   0  0  0  0  0  0  0  0  0  0  0  0
    5.7594   -1.3237    0.3396 C   0  0  0  0  0  0  0  0  0  0  0  0
    9.5804   -0.5006    3.3952 C   0  0  1  0  0  0  0  0  0  0  0  0
    8.2467    1.6522    2.9335 C   0  0  0  0  0  0  0  0  0  0  0  0
    5.3321    0.8901    1.5148 C   0  0  0  0  0  0  0  0  0  0  0  0
   10.9033    0.4066    3.6854 C   0  0  1  0  0  0  0  0  0  0  0  0
    8.8095   -0.8017    4.7263 C   0  0  0  0  0  0  0  0  0  0  0  0
    9.4576    2.5149    3.3014 C   0  0  0  0  0  0  0  0  0  0  0  0
    4.9488    1.9856    0.8359 C   0  0  0  0  0  0  0  0  0  0  0  0
    4.6989    0.5542    2.8391 C   0  0  0  0  0  0  0  0  0  0  0  0
   10.4447    1.8104    4.2594 C   0  0  2  0  0  0  0  0  0  0  0  0
   11.8417   -0.2783    4.7179 C   0  0  0  0  0  0  0  0  0  0  0  0
   11.7301    0.5715    2.3747 C   0  0  0  0  0  0  0  0  0  0  0  0
   11.5941    2.7517    4.8433 C   0  0  2  0  0  0  0  0  0  0  0  0
   12.9675    0.6132    5.2547 C   0  0  0  0  0  0  0  0  0  0  0  0
   12.4038    1.8982    5.8932 C   0  0  1  0  0  0  0  0  0  0  0  0
   10.9309    3.9398    5.6100 C   0  0  0  0  0  0  0  0  0  0  0  0
   12.4729    3.3583    3.7234 C   0  0  0  0  0  0  0  0  0  0  0  0
   13.4237    2.6920    6.7927 C   0  0  0  0  0  0  0  0  0  0  0  0
   11.8934    4.7495    6.4765 C   0  0  0  0  0  0  0  0  0  0  0  0
   12.6635    3.8757    7.4603 C   0  0  2  0  0  0  0  0  0  0  0  0
   14.6794    3.1704    6.0367 C   0  0  0  0  0  0  0  0  0  0  0  0
   13.9389    1.7783    7.9398 C   0  0  0  0  0  0  0  0  0  0  0  0
   13.5414    4.7028    8.2234 O   0  0  0  0  0  0  0  0  0  0  0  0
    6.9647   -0.6700    2.8947 H   0  0  0  0  0  0  0  0  0  0  0  0
    9.0763   -3.6175    1.8260 H   0  0  0  0  0  0  0  0  0  0  0  0
    8.1020   -2.9552    3.1287 H   0  0  0  0  0  0  0  0  0  0  0  0
    6.0675   -2.9325    1.7529 H   0  0  0  0  0  0  0  0  0  0  0  0
    6.6450   -3.3167    0.1907 H   0  0  0  0  0  0  0  0  0  0  0  0
    9.2015    0.4771    1.4916 H   0  0  0  0  0  0  0  0  0  0  0  0
    6.8738    0.6004    0.2437 H   0  0  0  0  0  0  0  0  0  0  0  0
   10.6016   -1.7546    1.9672 H   0  0  0  0  0  0  0  0  0  0  0  0
   10.3756   -2.4722    3.5876 H   0  0  0  0  0  0  0  0  0  0  0  0
    4.7313   -1.3998    0.6264 H   0  0  0  0  0  0  0  0  0  0  0  0
    5.7976   -1.3002   -0.7295 H   0  0  0  0  0  0  0  0  0  0  0  0
    7.6487    1.5101    3.8093 H   0  0  0  0  0  0  0  0  0  0  0  0
    7.7067    2.1641    2.1646 H   0  0  0  0  0  0  0  0  0  0  0  0
    7.9279   -1.3674    4.5077 H   0  0  0  0  0  0  0  0  0  0  0  0
    8.5346    0.1198    5.1956 H   0  0  0  0  0  0  0  0  0  0  0  0
    9.4395   -1.3630    5.3843 H   0  0  0  0  0  0  0  0  0  0  0  0
    9.1063    3.4086    3.7734 H   0  0  0  0  0  0  0  0  0  0  0  0
    9.9880    2.7180    2.3946 H   0  0  0  0  0  0  0  0  0  0  0  0
    5.3868    2.2101   -0.0711 H   0  0  0  0  0  0  0  0  0  0  0  0
    4.2166    2.6019    1.2219 H   0  0  0  0  0  0  0  0  0  0  0  0
    3.7628    1.0650    2.9266 H   0  0  0  0  0  0  0  0  0  0  0  0
    5.3479    0.8606    3.6327 H   0  0  0  0  0  0  0  0  0  0  0  0
    4.5361   -0.5016    2.8990 H   0  0  0  0  0  0  0  0  0  0  0  0
    9.9062    1.5787    5.1546 H   0  0  0  0  0  0  0  0  0  0  0  0
   12.2872   -1.1306    4.2486 H   0  0  0  0  0  0  0  0  0  0  0  0
   11.2305   -0.5307    5.5591 H   0  0  0  0  0  0  0  0  0  0  0  0
   12.0984   -0.3835    2.0629 H   0  0  0  0  0  0  0  0  0  0  0  0
   12.5539    1.2305    2.5532 H   0  0  0  0  0  0  0  0  0  0  0  0
   11.1056    0.9806    1.6081 H   0  0  0  0  0  0  0  0  0  0  0  0
   13.6165    0.8803    4.4470 H   0  0  0  0  0  0  0  0  0  0  0  0
   13.5028    0.0688    6.0043 H   0  0  0  0  0  0  0  0  0  0  0  0
   11.6850    1.5934    6.6248 H   0  0  0  0  0  0  0  0  0  0  0  0
   10.1644    3.5433    6.2427 H   0  0  0  0  0  0  0  0  0  0  0  0
   10.5535    4.6099    4.8660 H   0  0  0  0  0  0  0  0  0  0  0  0
   13.3865    2.8063    3.6485 H   0  0  0  0  0  0  0  0  0  0  0  0
   12.6914    4.3798    3.9553 H   0  0  0  0  0  0  0  0  0  0  0  0
   11.9486    3.3083    2.7921 H   0  0  0  0  0  0  0  0  0  0  0  0
   11.3326    5.4754    7.0274 H   0  0  0  0  0  0  0  0  0  0  0  0
   12.6049    5.2152    5.8269 H   0  0  0  0  0  0  0  0  0  0  0  0
   11.9491    3.4071    8.1045 H   0  0  0  0  0  0  0  0  0  0  0  0
   15.4177    3.4940    6.7403 H   0  0  0  0  0  0  0  0  0  0  0  0
   14.4195    3.9845    5.3927 H   0  0  0  0  0  0  0  0  0  0  0  0
   15.0725    2.3648    5.4523 H   0  0  0  0  0  0  0  0  0  0  0  0
   14.3041    2.3848    8.7421 H   0  0  0  0  0  0  0  0  0  0  0  0
   14.7297    1.1575    7.5734 H   0  0  0  0  0  0  0  0  0  0  0  0
   13.1376    1.1636    8.2934 H   0  0  0  0  0  0  0  0  0  0  0  0
   13.0249    5.3780    8.6905 H   0  0  0  0  0  0  0  0  0  0  0  0
  1  2  2  0  0  0  0
  2  3  1  0  0  0  0
  4  2  1  0  0  0  0
  4  5  1  0  0  0  0
  4  6  1  0  0  0  0
  4  7  1  0  0  0  0
  5  8  1  0  0  0  0
  5  9  1  0  0  0  0
  5 34  1  0  0  0  0
  6 10  1  0  0  0  0
  6 35  1  0  0  0  0
  6 36  1  0  0  0  0
  7 11  1  0  0  0  0
  7 37  1  0  0  0  0
  7 38  1  0  0  0  0
  8 12  1  0  0  0  0
  8 13  1  0  0  0  0
  8 39  1  0  0  0  0
  9 14  1  0  0  0  0
  9 11  1  0  0  0  0
  9 40  1  0  0  0  0
 10 12  1  0  0  0  0
 10 41  1  0  0  0  0
 10 42  1  0  0  0  0
 11 43  1  0  0  0  0
 11 44  1  0  0  0  0
 12 15  1  0  0  0  0
 12 16  1  0  0  0  0
 13 17  1  0  0  0  0
 13 45  1  0  0  0  0
 13 46  1  0  0  0  0
 14 18  2  0  0  0  0
 14 19  1  0  0  0  0
 15 20  1  0  0  0  0
 15 21  1  0  0  0  0
 15 22  1  0  0  0  0
 16 47  1  0  0  0  0
 16 48  1  0  0  0  0
 16 49  1  0  0  0  0
 17 20  1  0  0  0  0
 17 50  1  0  0  0  0
 17 51  1  0  0  0  0
 18 52  1  0  0  0  0
 18 53  1  0  0  0  0
 19 54  1  0  0  0  0
 19 55  1  0  0  0  0
 19 56  1  0  0  0  0
 20 23  1  0  0  0  0
 20 57  1  0  0  0  0
 21 24  1  0  0  0  0
 21 58  1  0  0  0  0
 21 59  1  0  0  0  0
 22 60  1  0  0  0  0
 22 61  1  0  0  0  0
 22 62  1  0  0  0  0
 23 25  1  0  0  0  0
 23 26  1  0  0  0  0
 23 27  1  0  0  0  0
 24 25  1  0  0  0  0
 24 63  1  0  0  0  0
 24 64  1  0  0  0  0
 25 28  1  0  0  0  0
 25 65  1  0  0  0  0
 26 29  1  0  0  0  0
 26 66  1  0  0  0  0
 26 67  1  0  0  0  0
 27 68  1  0  0  0  0
 27 69  1  0  0  0  0
 27 70  1  0  0  0  0
 28 30  1  0  0  0  0
 28 31  1  0  0  0  0
 28 32  1  0  0  0  0
 29 30  1  0  0  0  0
 29 71  1  0  0  0  0
 29 72  1  0  0  0  0
 30 33  1  0  0  0  0
 30 73  1  0  0  0  0
 31 74  1  0  0  0  0
 31 75  1  0  0  0  0
 31 76  1  0  0  0  0
 32 77  1  0  0  0  0
 32 78  1  0  0  0  0
 32 79  1  0  0  0  0
 33 80  1  0  0  0  0
M  CHG  1   3  -1
M  END
>  <Code-name>
142

>  <Compound>
betulinic acid

>  <Specie>
Piptoporus betulinus

>  <Reference>
GrÃ¼ndemann (2020)

>  <Organism>
Antitumoral Activity

>  <Smiles>
CC(C)([C@H](CC1)[C@](C)(CC2)[C@@H](CC3)[C@]1(C)[C@](C)(CC1)[C@H]3[C@@H]([C@@H](CC3)C(C)=C)[C@@]13C(O)=O)[C@H]2O

>  <MMFF94 Energy>
127.99

>  <Total Molweight>
456.708

>  <Molweight>
456.708

>  <Monoisotopic Mass>
456.360345

>  <cLogP>
6.3706

>  <cLogS>
-6.278

>  <H-Acceptors>
3

>  <H-Donors>
2

>  <Total Surface Area>
337.41

>  <Relative PSA>
0.1163

>  <Polar Surface Area>
57.53

>  <Druglikeness>
-21.49

>  <Mutagenic>
none

>  <Tumorigenic>
none

>  <Reproductive Effective>
none

>  <Irritant>
none

>  <Nasty Functions>


>  <Shape Index>
0.39394

>  <Molecular Flexibility>
0.22834

>  <Molecular Complexity>
1.0038

>  <Fragments>
1

>  <Non-H Atoms>
33

>  <Non-C/H Atoms>
3

>  <Metal-Atoms>
0

>  <Electronegative Atoms>
3

>  <Stereo Centers>
10

>  <Rotatable Bonds>
2

>  <Rings Closures>
5

>  <Small Rings>
5

>  <Aromatic Rings>
0

>  <Aromatic Atoms>
0

>  <sp3-Atoms>
29

>  <Symmetric atoms>
1

>  <Amides>
0

>  <Amines>
0

>  <Alkyl-Amines>
0

>  <Aromatic Amines>
0

>  <Aromatic Nitrogens>
0

>  <Basic Nitrogens>
0

>  <Acidic Oxygens>
1

>  <Stereo Configuration>
this enantiomer

> <Gold.Version>
5.8.1

> <Gold.Id.Protein>
ID_2|Prot_COX2_5IKQ_Alig|mol2

> <Gold.Goldscore.Fitness>
-73.2923

> <Gold.Goldscore.Internal.Vdw>
-48.8058

> <Gold.Goldscore.Internal.Torsion>
-6.0129

> <Gold.Goldscore.External.Vdw>
-52.8248

> <Gold.Goldscore.Internal.HBond>
0.0000

> <Gold.Goldscore.External.HBond>
0.0000

> <Gold.Goldscore.Internal.Correction>
-54.1606

> <Gold.Goldscore.Internal.Vdw.Weighted>
-48.8058

> <Gold.Goldscore.Internal.Torsion.Weighted>
-6.0129

> <Gold.Goldscore.External.Vdw.Weighted>
-72.6342

> <Gold.Goldscore.Internal.HBond.Weighted>
0.0000

> <Gold.Goldscore.External.HBond.Weighted>
0.0000

> <Gold.Goldscore.Internal.Correction.Weighted>
-54.1606

> <Gold.Protein.RotatedTorsions>
[ 5077 5068 5067 5065 ] final -169.24 input  179.94 | X-H torsion
[ 5157 5152 5151 5148 ] final -172.91 input -179.92 | X-H torsion
[ 5185 5176 5175 5173 ] final   52.23 input -179.99 | X-H torsion
[ 5712 5703 5702 5700 ] final  -14.80 input  180.00 | X-H torsion
[ 8036 8031 8030 8027 ] final -177.57 input -179.94 | X-H torsion
[ 2749 2745 2743 2740 ] final -128.71 input  -60.05 | X-H torsion
[ 1366 1361 1360 1357 ] final  135.98 input  -60.09 | X-H torsion
[ 2556 2551 2550 2547 ] final  171.58 input   59.97 | X-H torsion

> <Gold.Protein.ActiveResidues>
 PRO86   VAL89   HIS90   LEU93   THR94   ILE112  MET113  TYR115  VAL116  LEU117 
 THR118  SER119  ARG120  SER121  LEU123  ILE124  GLN192  SER194  PHE198  PHE201 
 ALA202  GLN203  PHE205  THR206  PHE209  PHE210  VAL228  ILE341  ILE343  VAL344 
 ILE345  GLU346  ASP347  TYR348  VAL349  GLN350  HIS351  LEU352  SER353  GLY354 
 TYR355  PHE357  LEU359  LYS360  GLU380  PHE381  ASN382  THR383  LEU384  TYR385 
 HIS386  TRP387  LEU390  VAL434  LEU507  ARG513  ALA516  ILE517  PHE518  GLY519 
 GLU520  THR521  MET522  VAL523  GLU524  VAL525  GLY526  ALA527  PRO528  PHE529 
 SER530  LEU531  LYS532  GLY533  LEU534  MET535  COH609 

> <Gold.Protein.RotatedAtoms>
   18.6798    6.6109    2.3603 H   0  0  0  0  0  0  0  0  0  0  0  0  # atno 1366 bound_to 1361
    4.6263   -9.3002    6.6294 H   0  0  0  0  0  0  0  0  0  0  0  0  # atno 2556 bound_to 2551
   -2.8824   -0.5129    0.8934 H   0  0  0  0  0  0  0  0  0  0  0  0  # atno 2749 bound_to 2745
    2.0297   -1.6872    3.6983 H   0  0  0  0  0  0  0  0  0  0  0  0  # atno 5077 bound_to 5068
   12.3039   -1.3442    9.2262 H   0  0  0  0  0  0  0  0  0  0  0  0  # atno 5157 bound_to 5152
   15.3721   -0.9590    4.6455 H   0  0  0  0  0  0  0  0  0  0  0  0  # atno 5185 bound_to 5176
    1.7199   -0.8044    2.8339 H   0  0  0  0  0  0  0  0  0  0  0  0  # atno 5712 bound_to 5703
    5.8047    3.7503    3.5608 H   0  0  0  0  0  0  0  0  0  0  0  0  # atno 8036 bound_to 8031
    0.5607   -1.6626    4.0189 LP  0  0  0  0  0  0  0  0  0  0  0  0  # atno 8267 bound_to 5068
    1.4932   -2.9857    4.2345 LP  0  0  0  0  0  0  0  0  0  0  0  0  # atno 8268 bound_to 5068
   12.8565   -2.7440    9.2068 LP  0  0  0  0  0  0  0  0  0  0  0  0  # atno 8279 bound_to 5152
   11.2615   -2.4231    9.3461 LP  0  0  0  0  0  0  0  0  0  0  0  0  # atno 8280 bound_to 5152
   16.7604   -0.4584    4.9294 LP  0  0  0  0  0  0  0  0  0  0  0  0  # atno 8281 bound_to 5176
   15.4371    0.4935    5.0260 LP  0  0  0  0  0  0  0  0  0  0  0  0  # atno 8282 bound_to 5176
    2.1446    0.6118    2.5643 LP  0  0  0  0  0  0  0  0  0  0  0  0  # atno 8283 bound_to 5703
    3.1627   -0.6588    2.4394 LP  0  0  0  0  0  0  0  0  0  0  0  0  # atno 8284 bound_to 5703
    4.6137    4.5886    3.1886 LP  0  0  0  0  0  0  0  0  0  0  0  0  # atno 8309 bound_to 8031
    6.0336    5.2316    3.6755 LP  0  0  0  0  0  0  0  0  0  0  0  0  # atno 8310 bound_to 8031
   -3.5582   -0.0080   -0.3522 LP  0  0  0  0  0  0  0  0  0  0  0  0  # atno 8323 bound_to 2745
   -4.2006    0.1694    1.1386 LP  0  0  0  0  0  0  0  0  0  0  0  0  # atno 8324 bound_to 2745
   17.5234    7.5434    2.1213 LP  0  0  0  0  0  0  0  0  0  0  0  0  # atno 8335 bound_to 1361
   18.3287    7.4759    3.5403 LP  0  0  0  0  0  0  0  0  0  0  0  0  # atno 8336 bound_to 1361
    5.2910  -10.2782    7.5599 LP  0  0  0  0  0  0  0  0  0  0  0  0  # atno 8342 bound_to 2551
    4.7050   -8.8381    8.0592 LP  0  0  0  0  0  0  0  0  0  0  0  0  # atno 8343 bound_to 2551

