
148|LMW3_p|sdf|148|dock18
  -GOLD-   6 92213203D 1   1.00000     0.00000

 40 43  0  0  0  0  0  0  0  0  1 V2000
    8.9566   -1.6363    5.6402 O   0  0  0  0  0  0  0  0  0  0  0  0
    8.8309   -0.9635    4.6209 C   0  0  0  0  0  0  0  0  0  0  0  0
    7.6759   -0.0243    4.5014 O   0  0  0  0  0  0  0  0  0  0  0  0
    9.9476   -1.0279    3.3230 C   0  0  2  0  0  0  0  0  0  0  0  0
    7.3556    0.7857    3.1865 C   0  0  1  0  0  0  0  0  0  0  0  0
    9.7626    0.3832    3.0040 C   0  0  0  0  0  0  0  0  0  0  0  0
    9.7014   -1.5144    1.7032 C   0  0  0  0  0  0  0  0  0  0  0  0
   11.3319   -1.3972    3.8162 C   0  0  0  0  0  0  0  0  0  0  0  0
    8.3576    0.0648    2.4158 C   0  0  2  0  0  0  0  0  0  0  0  0
    6.0171    0.4856    2.4442 C   0  0  0  0  0  0  0  0  0  0  0  0
    7.5442    2.2733    3.4660 C   0  0  0  0  0  0  0  0  0  0  0  0
    8.6791   -0.3958    1.0661 C   0  0  2  0  0  0  0  0  0  0  0  0
    7.6993   -1.4346    2.7339 O   0  0  0  0  0  0  0  0  0  0  0  0
    6.1742    0.2791    0.8662 C   0  0  2  0  0  0  0  0  0  0  0  0
    4.7269    1.1513    2.9148 C   0  0  0  0  0  0  0  0  0  0  0  0
    4.9224   -0.3071    3.1551 C   0  0  0  0  0  0  0  0  0  0  0  0
    7.3227   -0.7172    0.4043 C   0  0  0  0  0  0  0  0  0  0  0  0
    6.3553    1.6320    0.1659 C   0  0  0  0  0  0  0  0  0  0  0  0
   10.4601    0.7643    2.2876 H   0  0  0  0  0  0  0  0  0  0  0  0
    9.8763    1.1296    3.7620 H   0  0  0  0  0  0  0  0  0  0  0  0
    9.2606   -2.4888    1.6673 H   0  0  0  0  0  0  0  0  0  0  0  0
   10.6209   -1.5708    1.1591 H   0  0  0  0  0  0  0  0  0  0  0  0
   12.0671   -0.8813    3.2346 H   0  0  0  0  0  0  0  0  0  0  0  0
   11.4756   -2.4530    3.7177 H   0  0  0  0  0  0  0  0  0  0  0  0
   11.4304   -1.1182    4.8444 H   0  0  0  0  0  0  0  0  0  0  0  0
    8.0372    2.7327    2.6350 H   0  0  0  0  0  0  0  0  0  0  0  0
    8.1387    2.3982    4.3469 H   0  0  0  0  0  0  0  0  0  0  0  0
    6.5889    2.7326    3.6124 H   0  0  0  0  0  0  0  0  0  0  0  0
    9.1210    0.1357    0.2493 H   0  0  0  0  0  0  0  0  0  0  0  0
    6.7441   -1.4104    2.5668 H   0  0  0  0  0  0  0  0  0  0  0  0
    5.2605   -0.1934    0.5715 H   0  0  0  0  0  0  0  0  0  0  0  0
    4.0049    1.4810    2.1972 H   0  0  0  0  0  0  0  0  0  0  0  0
    4.4975    1.9917    3.5361 H   0  0  0  0  0  0  0  0  0  0  0  0
    5.0849   -0.6663    4.1498 H   0  0  0  0  0  0  0  0  0  0  0  0
    4.3622   -1.1892    2.9250 H   0  0  0  0  0  0  0  0  0  0  0  0
    7.0392   -1.7147    0.6680 H   0  0  0  0  0  0  0  0  0  0  0  0
    7.4418   -0.6110   -0.6537 H   0  0  0  0  0  0  0  0  0  0  0  0
    5.5075    2.2534    0.3659 H   0  0  0  0  0  0  0  0  0  0  0  0
    6.4440    1.4783   -0.8893 H   0  0  0  0  0  0  0  0  0  0  0  0
    7.2407    2.1078    0.5327 H   0  0  0  0  0  0  0  0  0  0  0  0
  1  2  2  0  0  0  0
  2  3  1  0  0  0  0
  2  4  1  0  0  0  0
  3  5  1  0  0  0  0
  4  6  1  0  0  0  0
  4  7  1  0  0  0  0
  4  8  1  0  0  0  0
  5  9  1  0  0  0  0
  5 10  1  0  0  0  0
  5 11  1  0  0  0  0
  6  9  1  0  0  0  0
  6 19  1  0  0  0  0
  6 20  1  0  0  0  0
  7 12  1  0  0  0  0
  7 21  1  0  0  0  0
  7 22  1  0  0  0  0
  8 23  1  0  0  0  0
  8 24  1  0  0  0  0
  8 25  1  0  0  0  0
  9 13  1  0  0  0  0
  9 12  1  0  0  0  0
 10 14  1  0  0  0  0
 10 15  1  0  0  0  0
 10 16  1  0  0  0  0
 11 26  1  0  0  0  0
 11 27  1  0  0  0  0
 11 28  1  0  0  0  0
 12 17  1  0  0  0  0
 12 29  1  0  0  0  0
 13 30  1  0  0  0  0
 14 18  1  0  0  0  0
 14 17  1  0  0  0  0
 14 31  1  0  0  0  0
 15 16  1  0  0  0  0
 15 32  1  0  0  0  0
 15 33  1  0  0  0  0
 16 34  1  0  0  0  0
 16 35  1  0  0  0  0
 17 36  1  0  0  0  0
 17 37  1  0  0  0  0
 18 38  1  0  0  0  0
 18 39  1  0  0  0  0
 18 40  1  0  0  0  0
M  END
>  <Code-name>
148

>  <Compound>
phellinuin J

>  <Specie>
Laetiporus sulphureus

>  <Reference>
GrÃ¼ndemann (2020)

>  <Organism>
Antitumoral Activity

>  <Smiles>
C[C@@H](C[C@H](C[C@@]1(C)C2)[C@@]22O)C3(CC3)[C@@]2(C)OC1=O

>  <MMFF94 Energy>
270.15

>  <Total Molweight>
250.337

>  <Molweight>
250.337

>  <Monoisotopic Mass>
250.156895

>  <cLogP>
1.593

>  <cLogS>
-2.962

>  <H-Acceptors>
3

>  <H-Donors>
1

>  <Total Surface Area>
165.82

>  <Relative PSA>
0.21795

>  <Polar Surface Area>
46.53

>  <Druglikeness>
0.44575

>  <Mutagenic>
none

>  <Tumorigenic>
none

>  <Reproductive Effective>
none

>  <Irritant>
high

>  <Nasty Functions>


>  <Shape Index>
0.38889

>  <Molecular Flexibility>
0.22071

>  <Molecular Complexity>
0.95387

>  <Fragments>
1

>  <Non-H Atoms>
18

>  <Non-C/H Atoms>
3

>  <Metal-Atoms>
0

>  <Electronegative Atoms>
3

>  <Stereo Centers>
5

>  <Rotatable Bonds>
0

>  <Rings Closures>
4

>  <Small Rings>
5

>  <Aromatic Rings>
0

>  <Aromatic Atoms>
0

>  <sp3-Atoms>
16

>  <Symmetric atoms>
1

>  <Amides>
0

>  <Amines>
0

>  <Alkyl-Amines>
0

>  <Aromatic Amines>
0

>  <Aromatic Nitrogens>
0

>  <Basic Nitrogens>
0

>  <Acidic Oxygens>
0

>  <Stereo Configuration>
this enantiomer

> <Gold.Version>
5.8.1

> <Gold.Id.Protein>
ID_2|Prot_COX2_5IKQ_Alig|mol2

> <Gold.Goldscore.Fitness>
36.7518

> <Gold.Goldscore.Internal.Vdw>
-31.2160

> <Gold.Goldscore.Internal.Torsion>
-3.5418

> <Gold.Goldscore.External.Vdw>
27.5541

> <Gold.Goldscore.Internal.HBond>
0.0000

> <Gold.Goldscore.External.HBond>
0.0000

> <Gold.Goldscore.Internal.Correction>
-33.6227

> <Gold.Goldscore.Internal.Vdw.Weighted>
-31.2160

> <Gold.Goldscore.Internal.Torsion.Weighted>
-3.5418

> <Gold.Goldscore.External.Vdw.Weighted>
37.8869

> <Gold.Goldscore.Internal.HBond.Weighted>
0.0000

> <Gold.Goldscore.External.HBond.Weighted>
0.0000

> <Gold.Goldscore.Internal.Correction.Weighted>
-33.6227

> <Gold.Protein.RotatedTorsions>
[ 5077 5068 5067 5065 ] final -179.62 input  179.94 | X-H torsion
[ 5157 5152 5151 5148 ] final  -52.85 input -179.92 | X-H torsion
[ 5185 5176 5175 5173 ] final   86.92 input -179.99 | X-H torsion
[ 5712 5703 5702 5700 ] final  -87.18 input  180.00 | X-H torsion
[ 8036 8031 8030 8027 ] final  -46.24 input -179.94 | X-H torsion
[ 2749 2745 2743 2740 ] final -158.42 input  -60.05 | X-H torsion
[ 1366 1361 1360 1357 ] final   17.29 input  -60.09 | X-H torsion
[ 2556 2551 2550 2547 ] final   62.71 input   59.97 | X-H torsion

> <Gold.Protein.ActiveResidues>
 PRO86   VAL89   HIS90   LEU93   THR94   ILE112  MET113  TYR115  VAL116  LEU117 
 THR118  SER119  ARG120  SER121  LEU123  ILE124  GLN192  SER194  PHE198  PHE201 
 ALA202  GLN203  PHE205  THR206  PHE209  PHE210  VAL228  ILE341  ILE343  VAL344 
 ILE345  GLU346  ASP347  TYR348  VAL349  GLN350  HIS351  LEU352  SER353  GLY354 
 TYR355  PHE357  LEU359  LYS360  GLU380  PHE381  ASN382  THR383  LEU384  TYR385 
 HIS386  TRP387  LEU390  VAL434  LEU507  ARG513  ALA516  ILE517  PHE518  GLY519 
 GLU520  THR521  MET522  VAL523  GLU524  VAL525  GLY526  ALA527  PRO528  PHE529 
 SER530  LEU531  LYS532  GLY533  LEU534  MET535  COH609 

> <Gold.Protein.RotatedAtoms>
   17.6671    7.5001    2.1795 H   0  0  0  0  0  0  0  0  0  0  0  0  # atno 1366 bound_to 1361
    5.1694  -10.1888    7.3836 H   0  0  0  0  0  0  0  0  0  0  0  0  # atno 2556 bound_to 2551
   -2.8086   -0.5036    0.4954 H   0  0  0  0  0  0  0  0  0  0  0  0  # atno 2749 bound_to 2745
    1.9383   -1.5783    3.6844 H   0  0  0  0  0  0  0  0  0  0  0  0  # atno 5077 bound_to 5068
   11.4019   -2.3733    9.2904 H   0  0  0  0  0  0  0  0  0  0  0  0  # atno 5157 bound_to 5152
   15.0887   -0.5904    4.7136 H   0  0  0  0  0  0  0  0  0  0  0  0  # atno 5185 bound_to 5176
    1.6531    0.1179    2.7281 H   0  0  0  0  0  0  0  0  0  0  0  0  # atno 5712 bound_to 5703
    5.8353    5.1867    3.5607 H   0  0  0  0  0  0  0  0  0  0  0  0  # atno 8036 bound_to 8031
    0.5074   -1.8112    4.0839 LP  0  0  0  0  0  0  0  0  0  0  0  0  # atno 8267 bound_to 5068
    1.6559   -2.9675    4.1863 LP  0  0  0  0  0  0  0  0  0  0  0  0  # atno 8268 bound_to 5068
   12.3379   -1.1950    9.2695 LP  0  0  0  0  0  0  0  0  0  0  0  0  # atno 8279 bound_to 5152
   12.8588   -2.7413    9.2066 LP  0  0  0  0  0  0  0  0  0  0  0  0  # atno 8280 bound_to 5152
   16.5471   -0.9505    4.7594 LP  0  0  0  0  0  0  0  0  0  0  0  0  # atno 8281 bound_to 5176
   15.9905    0.5431    5.1143 LP  0  0  0  0  0  0  0  0  0  0  0  0  # atno 8282 bound_to 5176
    3.1083    0.0937    2.3531 LP  0  0  0  0  0  0  0  0  0  0  0  0  # atno 8283 bound_to 5703
    2.2791   -1.2476    2.7774 LP  0  0  0  0  0  0  0  0  0  0  0  0  # atno 8284 bound_to 5703
    6.0009    3.6970    3.6756 LP  0  0  0  0  0  0  0  0  0  0  0  0  # atno 8309 bound_to 8031
    4.6097    4.3998    3.1886 LP  0  0  0  0  0  0  0  0  0  0  0  0  # atno 8310 bound_to 8031
   -3.9572    0.2002   -0.1746 LP  0  0  0  0  0  0  0  0  0  0  0  0  # atno 8323 bound_to 2745
   -3.8901   -0.0499    1.4377 LP  0  0  0  0  0  0  0  0  0  0  0  0  # atno 8324 bound_to 2745
   18.3144    7.4885    3.5377 LP  0  0  0  0  0  0  0  0  0  0  0  0  # atno 8335 bound_to 1361
   18.7492    6.4671    2.3401 LP  0  0  0  0  0  0  0  0  0  0  0  0  # atno 8336 bound_to 1361
    4.7813   -8.9629    8.1652 LP  0  0  0  0  0  0  0  0  0  0  0  0  # atno 8342 bound_to 2551
    4.5650   -9.0903    6.5516 LP  0  0  0  0  0  0  0  0  0  0  0  0  # atno 8343 bound_to 2551

