
014|LMW3_p|sdf|14|dock5
  -GOLD-   6 62223243D 1   1.00000     0.00000

 78 82  0  0  0  0  0  0  0  0  2 V2000
    4.4907    0.5309   -0.4398 O   0  0  0  0  0  0  0  0  0  0  0  0
    5.2421    0.0957    0.4296 C   0  0  0  0  0  0  0  0  0  0  0  0
    5.8560   -1.0848    0.2601 O   0  0  0  0  0  0  0  0  0  0  0  0
    5.5044    0.8663    1.6865 C   0  0  0  0  0  0  0  0  0  0  0  0
    6.6248   -1.7374    1.2646 C   0  0  0  0  0  0  0  0  0  0  0  0
    6.9552    1.3121    1.7898 C   0  0  0  0  0  0  0  0  0  0  0  0
    6.8692   -3.0134    0.6988 O   0  0  0  0  0  0  0  0  0  0  0  0
    5.8724   -2.0271    2.4064 O   0  0  0  0  0  0  0  0  0  0  0  0
    7.9769   -1.0396    1.5524 C   0  0  1  0  0  0  0  0  0  0  0  0
    7.9328    0.2848    2.4218 C   0  0  1  0  0  0  0  0  0  0  0  0
    9.0220   -2.0129    2.1491 C   0  0  0  0  0  0  0  0  0  0  0  0
    9.3651    0.9145    2.4600 C   0  0  2  0  0  0  0  0  0  0  0  0
    7.5142    0.0214    3.8941 C   0  0  0  0  0  0  0  0  0  0  0  0
   10.4533   -1.4844    2.0442 C   0  0  0  0  0  0  0  0  0  0  0  0
   10.0618    0.7686    1.2339 O   0  0  0  0  0  0  0  0  0  0  0  0
   10.6008   -0.0135    2.3397 C   0  0  1  0  0  0  0  0  0  0  0  0
    9.5284    2.3159    3.0446 C   0  0  0  0  0  0  0  0  0  0  0  0
   11.9780    0.5131    2.7648 C   0  0  1  0  0  0  0  0  0  0  0  0
   10.9668    2.7344    3.4101 C   0  0  0  0  0  0  0  0  0  0  0  0
   11.8093    1.5603    3.9328 C   0  0  2  0  0  0  0  0  0  0  0  0
   12.9552   -0.4693    3.4280 C   0  0  0  0  0  0  0  0  0  0  0  0
   12.7115    1.0396    1.4840 C   0  0  0  0  0  0  0  0  0  0  0  0
   13.3018    1.8519    4.2877 C   0  0  2  0  0  0  0  0  0  0  0  0
   11.1019    0.9771    5.1964 C   0  0  0  0  0  0  0  0  0  0  0  0
   13.9389    0.4304    4.2080 C   0  0  0  0  0  0  0  0  0  0  0  0
   13.6276    2.5766    5.6196 C   0  0  2  0  0  0  0  0  0  0  0  0
   12.9583    3.9333    5.6500 C   0  0  0  0  0  0  0  0  0  0  0  0
   15.1476    2.7888    5.8064 C   0  0  0  0  0  0  0  0  0  0  0  0
   12.0582    4.2873    6.3930 O   0  0  0  0  0  0  0  0  0  0  0  0
   13.4536    4.7779    4.7252 O   0  5  0  0  0  0  0  0  0  0  0  0
   15.5307    3.0871    7.2634 C   0  0  0  0  0  0  0  0  0  0  0  0
   17.0431    3.2906    7.4054 C   0  0  0  0  0  0  0  0  0  0  0  0
   17.5896    2.8836    8.7864 C   0  0  0  0  0  0  0  0  0  0  0  0
   16.7035    3.4702    9.8882 C   0  0  0  0  0  0  0  0  0  0  0  0
   19.0374    3.3296    8.9966 C   0  0  0  0  0  0  0  0  0  0  0  0
    5.2731    0.2456    2.5269 H   0  0  0  0  0  0  0  0  0  0  0  0
    4.8899    1.7422    1.6714 H   0  0  0  0  0  0  0  0  0  0  0  0
    6.9841    2.2016    2.3839 H   0  0  0  0  0  0  0  0  0  0  0  0
    7.2895    1.4509    0.7829 H   0  0  0  0  0  0  0  0  0  0  0  0
    6.1859   -3.4610    0.2395 H   0  0  0  0  0  0  0  0  0  0  0  0
    4.9944   -2.3429    2.3213 H   0  0  0  0  0  0  0  0  0  0  0  0
    8.2720   -0.7210    0.5745 H   0  0  0  0  0  0  0  0  0  0  0  0
    8.9618   -2.9430    1.6237 H   0  0  0  0  0  0  0  0  0  0  0  0
    8.7972   -2.1284    3.1888 H   0  0  0  0  0  0  0  0  0  0  0  0
    6.7180   -0.6930    3.9162 H   0  0  0  0  0  0  0  0  0  0  0  0
    7.1848    0.9364    4.3404 H   0  0  0  0  0  0  0  0  0  0  0  0
    8.3514   -0.3606    4.4401 H   0  0  0  0  0  0  0  0  0  0  0  0
   10.8027   -1.6618    1.0485 H   0  0  0  0  0  0  0  0  0  0  0  0
   11.0237   -2.0024    2.7867 H   0  0  0  0  0  0  0  0  0  0  0  0
    8.9360    2.3704    3.9339 H   0  0  0  0  0  0  0  0  0  0  0  0
    9.2211    2.9880    2.2708 H   0  0  0  0  0  0  0  0  0  0  0  0
   10.9222    3.4883    4.1680 H   0  0  0  0  0  0  0  0  0  0  0  0
   11.4349    3.0975    2.5190 H   0  0  0  0  0  0  0  0  0  0  0  0
   13.4733   -1.0441    2.6890 H   0  0  0  0  0  0  0  0  0  0  0  0
   12.4572   -1.1727    4.0621 H   0  0  0  0  0  0  0  0  0  0  0  0
   13.6933    1.3738    1.7473 H   0  0  0  0  0  0  0  0  0  0  0  0
   12.1579    1.8539    1.0652 H   0  0  0  0  0  0  0  0  0  0  0  0
   12.7842    0.2506    0.7649 H   0  0  0  0  0  0  0  0  0  0  0  0
   13.6934    2.5847    3.6135 H   0  0  0  0  0  0  0  0  0  0  0  0
   11.7651    0.3032    5.6973 H   0  0  0  0  0  0  0  0  0  0  0  0
   10.2175    0.4528    4.9000 H   0  0  0  0  0  0  0  0  0  0  0  0
   10.8382    1.7757    5.8580 H   0  0  0  0  0  0  0  0  0  0  0  0
   14.8771    0.4777    3.6958 H   0  0  0  0  0  0  0  0  0  0  0  0
   14.1158    0.0387    5.1878 H   0  0  0  0  0  0  0  0  0  0  0  0
   13.2638    1.9533    6.4095 H   0  0  0  0  0  0  0  0  0  0  0  0
   15.4558    3.6119    5.1962 H   0  0  0  0  0  0  0  0  0  0  0  0
   15.6376    1.8806    5.5233 H   0  0  0  0  0  0  0  0  0  0  0  0
   15.2292    2.2657    7.8793 H   0  0  0  0  0  0  0  0  0  0  0  0
   15.0367    3.9862    7.5676 H   0  0  0  0  0  0  0  0  0  0  0  0
   17.2621    4.3258    7.2459 H   0  0  0  0  0  0  0  0  0  0  0  0
   17.5153    2.6601    6.6813 H   0  0  0  0  0  0  0  0  0  0  0  0
   17.5750    1.8147    8.8314 H   0  0  0  0  0  0  0  0  0  0  0  0
   17.2078    3.3958   10.8289 H   0  0  0  0  0  0  0  0  0  0  0  0
   15.7831    2.9264    9.9330 H   0  0  0  0  0  0  0  0  0  0  0  0
   16.5002    4.4984    9.6729 H   0  0  0  0  0  0  0  0  0  0  0  0
   19.1067    4.3893    8.8659 H   0  0  0  0  0  0  0  0  0  0  0  0
   19.6683    2.8403    8.2843 H   0  0  0  0  0  0  0  0  0  0  0  0
   19.3500    3.0712    9.9868 H   0  0  0  0  0  0  0  0  0  0  0  0
  1  2  2  0  0  0  0
  2  3  1  0  0  0  0
  2  4  1  0  0  0  0
  3  5  1  0  0  0  0
  4  6  1  0  0  0  0
  4 36  1  0  0  0  0
  4 37  1  0  0  0  0
  5  7  1  0  0  0  0
  5  8  1  0  0  0  0
  5  9  1  0  0  0  0
  6 10  1  0  0  0  0
  6 38  1  0  0  0  0
  6 39  1  0  0  0  0
  7 40  1  0  0  0  0
  8 41  1  0  0  0  0
  9 11  1  0  0  0  0
  9 10  1  0  0  0  0
  9 42  1  0  0  0  0
 10 12  1  0  0  0  0
 10 13  1  0  0  0  0
 11 14  1  0  0  0  0
 11 43  1  0  0  0  0
 11 44  1  0  0  0  0
 12 15  1  0  0  0  0
 12 16  1  0  0  0  0
 12 17  1  0  0  0  0
 13 45  1  0  0  0  0
 13 46  1  0  0  0  0
 13 47  1  0  0  0  0
 14 16  1  0  0  0  0
 14 48  1  0  0  0  0
 14 49  1  0  0  0  0
 16 18  1  0  0  0  0
 16 15  1  0  0  0  0
 17 19  1  0  0  0  0
 17 50  1  0  0  0  0
 17 51  1  0  0  0  0
 18 20  1  0  0  0  0
 18 21  1  0  0  0  0
 18 22  1  0  0  0  0
 19 20  1  0  0  0  0
 19 52  1  0  0  0  0
 19 53  1  0  0  0  0
 20 23  1  0  0  0  0
 20 24  1  0  0  0  0
 21 25  1  0  0  0  0
 21 54  1  0  0  0  0
 21 55  1  0  0  0  0
 22 56  1  0  0  0  0
 22 57  1  0  0  0  0
 22 58  1  0  0  0  0
 23 26  1  0  0  0  0
 23 25  1  0  0  0  0
 23 59  1  0  0  0  0
 24 60  1  0  0  0  0
 24 61  1  0  0  0  0
 24 62  1  0  0  0  0
 25 63  1  0  0  0  0
 25 64  1  0  0  0  0
 26 27  1  0  0  0  0
 26 28  1  0  0  0  0
 26 65  1  0  0  0  0
 27 29  2  0  0  0  0
 27 30  1  0  0  0  0
 28 31  1  0  0  0  0
 28 66  1  0  0  0  0
 28 67  1  0  0  0  0
 31 32  1  0  0  0  0
 31 68  1  0  0  0  0
 31 69  1  0  0  0  0
 32 33  1  0  0  0  0
 32 70  1  0  0  0  0
 32 71  1  0  0  0  0
 33 34  1  0  0  0  0
 33 35  1  0  0  0  0
 33 72  1  0  0  0  0
 34 73  1  0  0  0  0
 34 74  1  0  0  0  0
 34 75  1  0  0  0  0
 35 76  1  0  0  0  0
 35 77  1  0  0  0  0
 35 78  1  0  0  0  0
M  CHG  1  30  -1
M  END
>  <Code-name>
014

>  <Compound>
3,4-seco-8α,9α-Epoxy-5α-lanosta-21-oic acid 3,4 lactone

>  <Specie>
Ganoderma tsugae

>  <Reference>
LIN et al., 2016

>  <Organism>
Antitumoral Activity

>  <Smiles>
CC(C)CCC[C@H]([C@@H](CC1)[C@@](C)(CC2)[C@]1(C)[C@]1(CC3)O[C@@]12[C@@](C)(CC1)[C@@H]3C(O)(O)OC1=O)C(O)=O

>  <MMFF94 Energy>
-5.3174

>  <Total Molweight>
492.650

>  <Molweight>
492.650

>  <Monoisotopic Mass>
492.308705

>  <cLogP>
4.6684

>  <cLogS>
-4.999

>  <H-Acceptors>
7

>  <H-Donors>
3

>  <Total Surface Area>
353.32

>  <Relative PSA>
0.2633

>  <Polar Surface Area>
116.59

>  <Druglikeness>
-5.6475

>  <Mutagenic>
none

>  <Tumorigenic>
none

>  <Reproductive Effective>
none

>  <Irritant>
high

>  <Nasty Functions>
oxiran/aziridine; orthoester/acid

>  <Shape Index>
0.45714

>  <Molecular Flexibility>
0.33489

>  <Molecular Complexity>
1.0666

>  <Fragments>
1

>  <Non-H Atoms>
35

>  <Non-C/H Atoms>
7

>  <Metal-Atoms>
0

>  <Electronegative Atoms>
7

>  <Stereo Centers>
8

>  <Rotatable Bonds>
6

>  <Rings Closures>
5

>  <Small Rings>
7

>  <Aromatic Rings>
0

>  <Aromatic Atoms>
0

>  <sp3-Atoms>
31

>  <Symmetric atoms>
2

>  <Amides>
0

>  <Amines>
0

>  <Alkyl-Amines>
0

>  <Aromatic Amines>
0

>  <Aromatic Nitrogens>
0

>  <Basic Nitrogens>
0

>  <Acidic Oxygens>
1

>  <Stereo Configuration>
this enantiomer

> <Gold.Version>
5.8.1

> <Gold.Id.Protein>
ID_2|Prot_COX2_5IKQ_Alig|mol2

> <Gold.Goldscore.Fitness>
0.0000

> <Gold.Goldscore.Internal.Vdw>
-31.9308

> <Gold.Goldscore.Internal.Torsion>
-7.6965

> <Gold.Goldscore.External.Vdw>
-696.3455

> <Gold.Goldscore.Internal.HBond>
0.0000

> <Gold.Goldscore.External.HBond>
0.0438

> <Gold.Goldscore.Internal.Correction>
-23.0860

> <Gold.Goldscore.Internal.Vdw.Weighted>
-31.9308

> <Gold.Goldscore.Internal.Torsion.Weighted>
-7.6965

> <Gold.Goldscore.External.Vdw.Weighted>
-957.4751

> <Gold.Goldscore.Internal.HBond.Weighted>
0.0000

> <Gold.Goldscore.External.HBond.Weighted>
0.0438

> <Gold.Goldscore.Internal.Correction.Weighted>
-23.0860

> <Gold.Protein.RotatedTorsions>
[ 5077 5068 5067 5065 ] final -167.41 input  179.94 | X-H torsion
[ 5157 5152 5151 5148 ] final -102.58 input -179.92 | X-H torsion
[ 5185 5176 5175 5173 ] final   30.94 input -179.99 | X-H torsion
[ 5712 5703 5702 5700 ] final  132.18 input  180.00 | X-H torsion
[ 8036 8031 8030 8027 ] final  -42.13 input -179.94 | X-H torsion
[ 2749 2745 2743 2740 ] final   29.95 input  -60.05 | X-H torsion
[ 1366 1361 1360 1357 ] final  174.75 input  -60.09 | X-H torsion
[ 2556 2551 2550 2547 ] final -110.19 input   59.97 | X-H torsion

> <Gold.Protein.ActiveResidues>
 PRO86   VAL89   HIS90   LEU93   THR94   ILE112  MET113  TYR115  VAL116  LEU117 
 THR118  SER119  ARG120  SER121  LEU123  ILE124  GLN192  SER194  PHE198  PHE201 
 ALA202  GLN203  PHE205  THR206  PHE209  PHE210  VAL228  ILE341  ILE343  VAL344 
 ILE345  GLU346  ASP347  TYR348  VAL349  GLN350  HIS351  LEU352  SER353  GLY354 
 TYR355  PHE357  LEU359  LYS360  GLU380  PHE381  ASN382  THR383  LEU384  TYR385 
 HIS386  TRP387  LEU390  VAL434  LEU507  ARG513  ALA516  ILE517  PHE518  GLY519 
 GLU520  THR521  MET522  VAL523  GLU524  VAL525  GLY526  ALA527  PRO528  PHE529 
 SER530  LEU531  LYS532  GLY533  LEU534  MET535  COH609 

> <Gold.Protein.RotatedAtoms>
   18.8240    6.7186    2.8531 H   0  0  0  0  0  0  0  0  0  0  0  0  # atno 1366 bound_to 1361
    4.5139   -8.7556    7.4572 H   0  0  0  0  0  0  0  0  0  0  0  0  # atno 2556 bound_to 2551
   -4.1739    0.2803    0.5573 H   0  0  0  0  0  0  0  0  0  0  0  0  # atno 2749 bound_to 2745
    2.0438   -1.7078    3.7018 H   0  0  0  0  0  0  0  0  0  0  0  0  # atno 5077 bound_to 5068
   11.4734   -1.7122    9.2923 H   0  0  0  0  0  0  0  0  0  0  0  0  # atno 5157 bound_to 5152
   15.6346   -1.0846    4.6446 H   0  0  0  0  0  0  0  0  0  0  0  0  # atno 5185 bound_to 5176
    3.0463   -0.2479    2.3708 H   0  0  0  0  0  0  0  0  0  0  0  0  # atno 5712 bound_to 5703
    5.7863    5.2092    3.5436 H   0  0  0  0  0  0  0  0  0  0  0  0  # atno 8036 bound_to 8031
    0.5730   -1.6377    4.0071 LP  0  0  0  0  0  0  0  0  0  0  0  0  # atno 8267 bound_to 5068
    1.4640   -2.9858    4.2421 LP  0  0  0  0  0  0  0  0  0  0  0  0  # atno 8268 bound_to 5068
   12.9753   -1.6637    9.2097 LP  0  0  0  0  0  0  0  0  0  0  0  0  # atno 8279 bound_to 5152
   12.1359   -3.0633    9.2641 LP  0  0  0  0  0  0  0  0  0  0  0  0  # atno 8280 bound_to 5152
   16.7272   -0.1238    5.0211 LP  0  0  0  0  0  0  0  0  0  0  0  0  # atno 8281 bound_to 5176
   15.1551    0.3097    4.9354 LP  0  0  0  0  0  0  0  0  0  0  0  0  # atno 8282 bound_to 5176
    1.9594   -1.1636    2.8594 LP  0  0  0  0  0  0  0  0  0  0  0  0  # atno 8283 bound_to 5703
    1.7559    0.4487    2.7000 LP  0  0  0  0  0  0  0  0  0  0  0  0  # atno 8284 bound_to 5703
    6.0525    3.7373    3.6932 LP  0  0  0  0  0  0  0  0  0  0  0  0  # atno 8309 bound_to 8031
    4.6170    4.3325    3.1916 LP  0  0  0  0  0  0  0  0  0  0  0  0  # atno 8310 bound_to 8031
   -3.1758   -0.4601    1.4053 LP  0  0  0  0  0  0  0  0  0  0  0  0  # atno 8323 bound_to 2745
   -3.0363   -0.3286   -0.2164 LP  0  0  0  0  0  0  0  0  0  0  0  0  # atno 8324 bound_to 2745
   17.8191    7.0954    1.7986 LP  0  0  0  0  0  0  0  0  0  0  0  0  # atno 8335 bound_to 1361
   17.8605    7.7951    3.2735 LP  0  0  0  0  0  0  0  0  0  0  0  0  # atno 8336 bound_to 1361
    4.9151   -9.8558    6.5123 LP  0  0  0  0  0  0  0  0  0  0  0  0  # atno 8342 bound_to 2551
    5.2154   -9.9121    8.1164 LP  0  0  0  0  0  0  0  0  0  0  0  0  # atno 8343 bound_to 2551

