
150|LMW3_p|sdf|150|dock1
  -GOLD-   6 92213213D 1   1.00000     0.00000

 56 56  0  0  0  0  0  0  0  0  1 V2000
    6.4692    1.3816    3.6982 O   0  0  0  0  0  0  0  0  0  0  0  0
    6.8354    0.7866    2.5216 C   0  0  0  0  0  0  0  0  0  0  0  0
    8.1877    0.5004    2.2936 C   0  0  0  0  0  0  0  0  0  0  0  0
    5.8547    0.4697    1.5774 C   0  0  0  0  0  0  0  0  0  0  0  0
    8.5284   -0.1113    1.0795 C   0  0  0  0  0  0  0  0  0  0  0  0
    9.2476    0.8698    3.3070 C   0  0  0  0  0  0  0  0  0  0  0  0
    6.2118   -0.1330    0.3659 C   0  0  0  0  0  0  0  0  0  0  0  0
    9.8427   -0.3978    0.8267 O   0  0  0  0  0  0  0  0  0  0  0  0
    7.5574   -0.4336    0.1275 C   0  0  0  0  0  0  0  0  0  0  0  0
   10.1076   -0.3073    3.6925 C   0  0  0  0  0  0  0  0  0  0  0  0
    5.1600   -0.5063   -0.6364 C   0  0  0  0  0  0  0  0  0  0  0  0
   11.4532   -0.3993    3.7101 C   0  0  0  0  0  0  0  0  0  0  0  0
   12.1195   -1.6936    4.1420 C   0  0  0  0  0  0  0  0  0  0  0  0
   12.3958    0.7120    3.3350 C   0  0  0  0  0  0  0  0  0  0  0  0
   11.2957   -2.9318    3.7703 C   0  0  0  0  0  0  0  0  0  0  0  0
   12.1446   -4.1756    3.7688 C   0  0  0  0  0  0  0  0  0  0  0  0
   11.7458   -5.4490    3.5749 C   0  0  0  0  0  0  0  0  0  0  0  0
   12.7666   -6.5735    3.5654 C   0  0  0  0  0  0  0  0  0  0  0  0
   10.3211   -5.8752    3.3407 C   0  0  0  0  0  0  0  0  0  0  0  0
   12.9671   -7.2025    4.9490 C   0  0  0  0  0  0  0  0  0  0  0  0
   14.0820   -8.2146    4.9354 C   0  0  0  0  0  0  0  0  0  0  0  0
   14.4913   -9.0020    5.9494 C   0  0  0  0  0  0  0  0  0  0  0  0
   13.9229   -8.9834    7.3416 C   0  0  0  0  0  0  0  0  0  0  0  0
   15.6090   -9.9924    5.7498 C   0  0  0  0  0  0  0  0  0  0  0  0
    5.5688    1.5835    3.8608 H   0  0  0  0  0  0  0  0  0  0  0  0
    4.8639    0.6810    1.7744 H   0  0  0  0  0  0  0  0  0  0  0  0
    8.7669    1.2468    4.1855 H   0  0  0  0  0  0  0  0  0  0  0  0
    9.8829    1.6068    2.8616 H   0  0  0  0  0  0  0  0  0  0  0  0
   10.2977    0.0541    0.1434 H   0  0  0  0  0  0  0  0  0  0  0  0
    7.8336   -0.8944   -0.7536 H   0  0  0  0  0  0  0  0  0  0  0  0
    9.5981   -1.1568    3.9817 H   0  0  0  0  0  0  0  0  0  0  0  0
    4.8746    0.3613   -1.1937 H   0  0  0  0  0  0  0  0  0  0  0  0
    4.3054   -0.8999   -0.1268 H   0  0  0  0  0  0  0  0  0  0  0  0
    5.5498   -1.2465   -1.3035 H   0  0  0  0  0  0  0  0  0  0  0  0
   12.2497   -1.6744    5.2039 H   0  0  0  0  0  0  0  0  0  0  0  0
   13.0572   -1.7622    3.6312 H   0  0  0  0  0  0  0  0  0  0  0  0
   12.5482    0.7082    2.2759 H   0  0  0  0  0  0  0  0  0  0  0  0
   13.3329    0.5674    3.8307 H   0  0  0  0  0  0  0  0  0  0  0  0
   11.9765    1.6506    3.6317 H   0  0  0  0  0  0  0  0  0  0  0  0
   10.8795   -2.7930    2.7944 H   0  0  0  0  0  0  0  0  0  0  0  0
   10.5216   -3.0528    4.4991 H   0  0  0  0  0  0  0  0  0  0  0  0
   13.1533   -4.0366    3.9365 H   0  0  0  0  0  0  0  0  0  0  0  0
   13.7037   -6.1823    3.2281 H   0  0  0  0  0  0  0  0  0  0  0  0
   12.3991   -7.3381    2.9131 H   0  0  0  0  0  0  0  0  0  0  0  0
   10.2558   -6.4084    2.4152 H   0  0  0  0  0  0  0  0  0  0  0  0
    9.6923   -5.0104    3.2992 H   0  0  0  0  0  0  0  0  0  0  0  0
   10.0025   -6.5098    4.1411 H   0  0  0  0  0  0  0  0  0  0  0  0
   12.0605   -7.6870    5.2459 H   0  0  0  0  0  0  0  0  0  0  0  0
   13.2253   -6.4257    5.6380 H   0  0  0  0  0  0  0  0  0  0  0  0
   14.5927   -8.3173    4.0446 H   0  0  0  0  0  0  0  0  0  0  0  0
   13.7573   -9.9874    7.6727 H   0  0  0  0  0  0  0  0  0  0  0  0
   12.9951   -8.4505    7.3410 H   0  0  0  0  0  0  0  0  0  0  0  0
   14.6119   -8.4992    8.0018 H   0  0  0  0  0  0  0  0  0  0  0  0
   15.9174   -9.9804    4.7253 H   0  0  0  0  0  0  0  0  0  0  0  0
   15.2670  -10.9728    6.0079 H   0  0  0  0  0  0  0  0  0  0  0  0
   16.4363   -9.7273    6.3745 H   0  0  0  0  0  0  0  0  0  0  0  0
  1  2  1  0  0  0  0
  1 25  1  0  0  0  0
  2  3  2  0  0  0  0
  2  4  1  0  0  0  0
  3  5  1  0  0  0  0
  3  6  1  0  0  0  0
  4  7  2  0  0  0  0
  4 26  1  0  0  0  0
  5  8  1  0  0  0  0
  5  9  2  0  0  0  0
  6 10  1  0  0  0  0
  6 27  1  0  0  0  0
  6 28  1  0  0  0  0
  7 11  1  0  0  0  0
  7  9  1  0  0  0  0
  8 29  1  0  0  0  0
  9 30  1  0  0  0  0
 10 12  2  0  0  0  0
 10 31  1  0  0  0  0
 11 32  1  0  0  0  0
 11 33  1  0  0  0  0
 11 34  1  0  0  0  0
 12 13  1  0  0  0  0
 12 14  1  0  0  0  0
 13 15  1  0  0  0  0
 13 35  1  0  0  0  0
 13 36  1  0  0  0  0
 14 37  1  0  0  0  0
 14 38  1  0  0  0  0
 14 39  1  0  0  0  0
 15 16  1  0  0  0  0
 15 40  1  0  0  0  0
 15 41  1  0  0  0  0
 16 17  2  0  0  0  0
 16 42  1  0  0  0  0
 17 18  1  0  0  0  0
 17 19  1  0  0  0  0
 18 20  1  0  0  0  0
 18 43  1  0  0  0  0
 18 44  1  0  0  0  0
 19 45  1  0  0  0  0
 19 46  1  0  0  0  0
 19 47  1  0  0  0  0
 20 21  1  0  0  0  0
 20 48  1  0  0  0  0
 20 49  1  0  0  0  0
 21 22  2  0  0  0  0
 21 50  1  0  0  0  0
 22 23  1  0  0  0  0
 22 24  1  0  0  0  0
 23 51  1  0  0  0  0
 23 52  1  0  0  0  0
 23 53  1  0  0  0  0
 24 54  1  0  0  0  0
 24 55  1  0  0  0  0
 24 56  1  0  0  0  0
M  END
>  <Code-name>
150

>  <Compound>
Grifolin

>  <Specie>
Albatrellus flettii

>  <Reference>
Mehreen Zeb and Chow H. Lee, 2021

>  <Organism>
Antibacterial Activity

>  <Smiles>
CC(C)=CCC/C(/C)=C/CC/C(/C)=C/Cc(c(O)cc(C)c1)c1O

>  <MMFF94 Energy>
48.859

>  <Total Molweight>
328.494

>  <Molweight>
328.494

>  <Monoisotopic Mass>
328.240230

>  <cLogP>
7.6782

>  <cLogS>
-4.259

>  <H-Acceptors>
2

>  <H-Donors>
2

>  <Total Surface Area>
290.19

>  <Relative PSA>
0.090286

>  <Polar Surface Area>
40.46

>  <Druglikeness>
-3.3766

>  <Mutagenic>
none

>  <Tumorigenic>
none

>  <Reproductive Effective>
none

>  <Irritant>
none

>  <Nasty Functions>


>  <Shape Index>
0.70833

>  <Molecular Flexibility>
0.61667

>  <Molecular Complexity>
0.69203

>  <Fragments>
1

>  <Non-H Atoms>
24

>  <Non-C/H Atoms>
2

>  <Metal-Atoms>
0

>  <Electronegative Atoms>
2

>  <Stereo Centers>
0

>  <Rotatable Bonds>
8

>  <Rings Closures>
1

>  <Small Rings>
1

>  <Aromatic Rings>
1

>  <Aromatic Atoms>
6

>  <sp3-Atoms>
12

>  <Symmetric atoms>
4

>  <Amides>
0

>  <Amines>
0

>  <Alkyl-Amines>
0

>  <Aromatic Amines>
0

>  <Aromatic Nitrogens>
0

>  <Basic Nitrogens>
0

>  <Acidic Oxygens>
0

>  <Stereo Configuration>


> <Gold.Version>
5.8.1

> <Gold.Id.Protein>
ID_2|Prot_COX2_5IKQ_Alig|mol2

> <Gold.Goldscore.Fitness>
74.2637

> <Gold.Goldscore.Internal.Vdw>
-8.9654

> <Gold.Goldscore.Internal.Torsion>
-9.0891

> <Gold.Goldscore.External.Vdw>
55.2029

> <Gold.Goldscore.Internal.HBond>
0.0000

> <Gold.Goldscore.External.HBond>
2.1707

> <Gold.Goldscore.Internal.Correction>
-14.2436

> <Gold.Goldscore.Hbonds>
donor molecule, donor type, donor heavy atom, donor atom, acceptor molecule, acceptor atom, score
      P1  H  8031  8036       L1     1  0.48
      L1  H     8    29       P1  7931  0.61

> <Gold.Goldscore.Internal.Vdw.Weighted>
-8.9654

> <Gold.Goldscore.Internal.Torsion.Weighted>
-9.0891

> <Gold.Goldscore.External.Vdw.Weighted>
75.9040

> <Gold.Goldscore.Internal.HBond.Weighted>
0.0000

> <Gold.Goldscore.External.HBond.Weighted>
2.1707

> <Gold.Goldscore.Internal.Correction.Weighted>
-14.2436

> <Gold.Protein.RotatedTorsions>
[ 5077 5068 5067 5065 ] final -171.69 input  179.94 | X-H torsion
[ 5157 5152 5151 5148 ] final -164.05 input -179.92 | X-H torsion
[ 5185 5176 5175 5173 ] final   50.76 input -179.99 | X-H torsion
[ 5712 5703 5702 5700 ] final   84.54 input  180.00 | X-H torsion
[ 8036 8031 8030 8027 ] final  176.37 input -179.94 | X-H torsion
[ 2749 2745 2743 2740 ] final   95.95 input  -60.05 | X-H torsion
[ 1366 1361 1360 1357 ] final  -82.80 input  -60.09 | X-H torsion
[ 2556 2551 2550 2547 ] final -155.39 input   59.97 | X-H torsion

> <Gold.Protein.ActiveResidues>
 PRO86   VAL89   HIS90   LEU93   THR94   ILE112  MET113  TYR115  VAL116  LEU117 
 THR118  SER119  ARG120  SER121  LEU123  ILE124  GLN192  SER194  PHE198  PHE201 
 ALA202  GLN203  PHE205  THR206  PHE209  PHE210  VAL228  ILE341  ILE343  VAL344 
 ILE345  GLU346  ASP347  TYR348  VAL349  GLN350  HIS351  LEU352  SER353  GLY354 
 TYR355  PHE357  LEU359  LYS360  GLU380  PHE381  ASN382  THR383  LEU384  TYR385 
 HIS386  TRP387  LEU390  VAL434  LEU507  ARG513  ALA516  ILE517  PHE518  GLY519 
 GLU520  THR521  MET522  VAL523  GLU524  VAL525  GLY526  ALA527  PRO528  PHE529 
 SER530  LEU531  LYS532  GLY533  LEU534  MET535  COH609 

> <Gold.Protein.RotatedAtoms>
   18.1175    7.6251    3.2974 H   0  0  0  0  0  0  0  0  0  0  0  0  # atno 1366 bound_to 1361
    4.5053   -8.9483    6.8811 H   0  0  0  0  0  0  0  0  0  0  0  0  # atno 2556 bound_to 2551
   -3.7080    0.1019   -0.1437 H   0  0  0  0  0  0  0  0  0  0  0  0  # atno 2749 bound_to 2745
    2.0099   -1.6602    3.6942 H   0  0  0  0  0  0  0  0  0  0  0  0  # atno 5077 bound_to 5068
   12.1831   -1.3296    9.2366 H   0  0  0  0  0  0  0  0  0  0  0  0  # atno 5157 bound_to 5152
   15.3885   -0.9705    4.6444 H   0  0  0  0  0  0  0  0  0  0  0  0  # atno 5185 bound_to 5176
    2.8740   -0.8464    2.5024 H   0  0  0  0  0  0  0  0  0  0  0  0  # atno 5712 bound_to 5703
    5.7306    3.7215    3.5354 H   0  0  0  0  0  0  0  0  0  0  0  0  # atno 8036 bound_to 8031
    0.5455   -1.6966    4.0345 LP  0  0  0  0  0  0  0  0  0  0  0  0  # atno 8267 bound_to 5068
    1.5321   -2.9840    4.2239 LP  0  0  0  0  0  0  0  0  0  0  0  0  # atno 8268 bound_to 5068
   12.9440   -2.6276    9.2008 LP  0  0  0  0  0  0  0  0  0  0  0  0  # atno 8279 bound_to 5152
   11.3184   -2.5571    9.3397 LP  0  0  0  0  0  0  0  0  0  0  0  0  # atno 8280 bound_to 5152
   16.7622   -0.4353    4.9363 LP  0  0  0  0  0  0  0  0  0  0  0  0  # atno 8281 bound_to 5176
   15.4154    0.4843    5.0204 LP  0  0  0  0  0  0  0  0  0  0  0  0  # atno 8282 bound_to 5176
    1.4550   -0.5967    2.9298 LP  0  0  0  0  0  0  0  0  0  0  0  0  # atno 8283 bound_to 5703
    2.4672    0.6001    2.4716 LP  0  0  0  0  0  0  0  0  0  0  0  0  # atno 8284 bound_to 5703
    4.6302    4.6871    3.1935 LP  0  0  0  0  0  0  0  0  0  0  0  0  # atno 8309 bound_to 8031
    6.1061    5.1677    3.7010 LP  0  0  0  0  0  0  0  0  0  0  0  0  # atno 8310 bound_to 8031
   -4.0568    0.0623    1.3193 LP  0  0  0  0  0  0  0  0  0  0  0  0  # atno 8323 bound_to 2745
   -2.7132   -0.6372    0.7092 LP  0  0  0  0  0  0  0  0  0  0  0  0  # atno 8324 bound_to 2745
   18.8696    6.5005    2.6390 LP  0  0  0  0  0  0  0  0  0  0  0  0  # atno 8335 bound_to 1361
   17.6553    7.3056    1.9016 LP  0  0  0  0  0  0  0  0  0  0  0  0  # atno 8336 bound_to 1361
    5.1992  -10.2749    7.0315 LP  0  0  0  0  0  0  0  0  0  0  0  0  # atno 8342 bound_to 2551
    4.9416   -9.2624    8.2865 LP  0  0  0  0  0  0  0  0  0  0  0  0  # atno 8343 bound_to 2551

