
157|LMW3_p|sdf|157|dock2
  -GOLD-   6 92216553D 1   1.00000     0.00000

 67 72  0  0  0  0  0  0  0  0  1 V2000
   13.7886   -0.0129    5.4987 O   0  0  0  0  0  0  0  0  0  0  0  0
   12.6507   -0.1815    4.6816 C   0  0  1  0  0  0  0  0  0  0  0  0
   14.1952    1.4434    5.2451 C   0  0  0  0  0  0  0  0  0  0  0  0
   11.7288   -1.1922    4.1403 O   0  0  0  0  0  0  0  0  0  0  0  0
   11.5801    0.6990    5.3126 C   0  0  1  0  0  0  0  0  0  0  0  0
   13.0515    2.5473    5.5381 C   0  0  1  0  0  0  0  0  0  0  0  0
   10.8273   -0.2473    3.2995 C   0  0  2  0  0  0  0  0  0  0  0  0
   10.6311   -0.0937    6.0505 O   0  0  0  0  0  0  0  0  0  0  0  0
   12.0372    1.7618    6.3135 C   0  0  1  0  0  0  0  0  0  0  0  0
   11.1668    1.1032    3.9130 C   0  0  1  0  0  0  0  0  0  0  0  0
   13.6223    3.5888    6.3584 O   0  0  0  0  0  0  0  0  0  0  0  0
   12.1772    3.2911    4.3615 C   0  0  2  0  0  0  0  0  0  0  0  0
    9.3245   -0.5477    3.0630 C   0  0  1  0  0  0  0  0  0  0  0  0
   10.9786    2.6026    6.7934 O   0  0  0  0  0  0  0  0  0  0  0  0
   10.8879    2.5277    3.8654 C   0  0  0  0  0  0  0  0  0  0  0  0
   13.0349    3.5059    3.2416 O   0  0  0  0  0  0  0  0  0  0  0  0
    8.6482    0.7211    2.3407 C   0  0  1  0  0  0  0  0  0  0  0  0
    9.3130   -1.8245    2.1389 C   0  0  0  0  0  0  0  0  0  0  0  0
    8.5353   -0.9136    4.3329 C   0  0  0  0  0  0  0  0  0  0  0  0
    9.6774    2.9583    3.4991 C   0  0  0  0  0  0  0  0  0  0  0  0
    7.3399    0.2457    1.6910 C   0  0  0  0  0  0  0  0  0  0  0  0
    8.4990    2.0549    3.1642 C   0  0  0  0  0  0  0  0  0  0  0  0
    8.0043   -2.0901    1.3865 C   0  0  0  0  0  0  0  0  0  0  0  0
    6.0291    0.4733    1.9377 C   0  0  0  0  0  0  0  0  0  0  0  0
    7.5103   -0.8423    0.6388 C   0  0  1  0  0  0  0  0  0  0  0  0
    5.3377    1.3674    2.9448 C   0  0  0  0  0  0  0  0  0  0  0  0
    5.1523   -0.4311    1.1053 C   0  0  0  0  0  0  0  0  0  0  0  0
    6.0925   -1.0279    0.0765 C   0  0  0  0  0  0  0  0  0  0  0  0
    8.4410   -0.4659   -0.5280 C   0  0  0  0  0  0  0  0  0  0  0  0
    4.9877    0.6347    4.2453 C   0  0  0  0  0  0  0  0  0  0  0  0
    4.0858    2.0047    2.3381 C   0  0  0  0  0  0  0  0  0  0  0  0
   13.3371   -0.1954    3.8608 H   0  0  0  0  0  0  0  0  0  0  0  0
   14.4825    1.5312    4.2181 H   0  0  0  0  0  0  0  0  0  0  0  0
   14.9869    1.6512    5.9342 H   0  0  0  0  0  0  0  0  0  0  0  0
   11.0451   -0.3597    2.2579 H   0  0  0  0  0  0  0  0  0  0  0  0
   11.0610   -0.4630    6.8376 H   0  0  0  0  0  0  0  0  0  0  0  0
   12.4219    1.3180    7.2078 H   0  0  0  0  0  0  0  0  0  0  0  0
   11.4499    1.4487    2.9407 H   0  0  0  0  0  0  0  0  0  0  0  0
   13.9521    3.2046    7.1857 H   0  0  0  0  0  0  0  0  0  0  0  0
   11.8134    4.1954    4.8027 H   0  0  0  0  0  0  0  0  0  0  0  0
   11.3433    3.2690    7.3965 H   0  0  0  0  0  0  0  0  0  0  0  0
   12.7155    4.2662    2.7308 H   0  0  0  0  0  0  0  0  0  0  0  0
    9.3512    1.0565    1.6071 H   0  0  0  0  0  0  0  0  0  0  0  0
    9.5175   -2.6765    2.7530 H   0  0  0  0  0  0  0  0  0  0  0  0
   10.0509   -1.6450    1.3851 H   0  0  0  0  0  0  0  0  0  0  0  0
    7.5374   -1.1916    4.0649 H   0  0  0  0  0  0  0  0  0  0  0  0
    8.5061   -0.0698    4.9902 H   0  0  0  0  0  0  0  0  0  0  0  0
    9.0138   -1.7336    4.8263 H   0  0  0  0  0  0  0  0  0  0  0  0
    9.5305    3.9780    3.4388 H   0  0  0  0  0  0  0  0  0  0  0  0
    8.0658    1.7757    4.1018 H   0  0  0  0  0  0  0  0  0  0  0  0
    7.9469    2.6672    2.4820 H   0  0  0  0  0  0  0  0  0  0  0  0
    7.2559   -2.3910    2.0895 H   0  0  0  0  0  0  0  0  0  0  0  0
    8.1867   -2.8587    0.6648 H   0  0  0  0  0  0  0  0  0  0  0  0
    6.0351    2.1386    3.1974 H   0  0  0  0  0  0  0  0  0  0  0  0
    4.3757    0.1294    0.6281 H   0  0  0  0  0  0  0  0  0  0  0  0
    4.6645   -1.1797    1.6939 H   0  0  0  0  0  0  0  0  0  0  0  0
    5.8806   -2.0676   -0.0616 H   0  0  0  0  0  0  0  0  0  0  0  0
    5.9836   -0.5522   -0.8758 H   0  0  0  0  0  0  0  0  0  0  0  0
    8.4685   -1.2682   -1.2354 H   0  0  0  0  0  0  0  0  0  0  0  0
    9.4273   -0.2863   -0.1538 H   0  0  0  0  0  0  0  0  0  0  0  0
    8.0742    0.4184   -1.0058 H   0  0  0  0  0  0  0  0  0  0  0  0
    5.8856    0.2843    4.7101 H   0  0  0  0  0  0  0  0  0  0  0  0
    4.3516   -0.1973    4.0258 H   0  0  0  0  0  0  0  0  0  0  0  0
    4.4817    1.3056    4.9076 H   0  0  0  0  0  0  0  0  0  0  0  0
    3.8044    2.8595    2.9169 H   0  0  0  0  0  0  0  0  0  0  0  0
    3.2865    1.2934    2.3406 H   0  0  0  0  0  0  0  0  0  0  0  0
    4.2912    2.3069    1.3323 H   0  0  0  0  0  0  0  0  0  0  0  0
  1  2  1  0  0  0  0
  1  3  1  0  0  0  0
  2  4  1  0  0  0  0
  2  5  1  0  0  0  0
  2 32  1  0  0  0  0
  3  6  1  0  0  0  0
  3 33  1  0  0  0  0
  3 34  1  0  0  0  0
  4  7  1  0  0  0  0
  5  8  1  0  0  0  0
  5  9  1  0  0  0  0
  5 10  1  0  0  0  0
  6 11  1  0  0  0  0
  6 12  1  0  0  0  0
  6  9  1  0  0  0  0
  7 13  1  0  0  0  0
  7 10  1  0  0  0  0
  7 35  1  0  0  0  0
  8 36  1  0  0  0  0
  9 14  1  0  0  0  0
  9 37  1  0  0  0  0
 10 15  1  0  0  0  0
 10 38  1  0  0  0  0
 11 39  1  0  0  0  0
 12 16  1  0  0  0  0
 12 15  1  0  0  0  0
 12 40  1  0  0  0  0
 13 17  1  0  0  0  0
 13 18  1  0  0  0  0
 13 19  1  0  0  0  0
 14 41  1  0  0  0  0
 15 20  2  0  0  0  0
 16 42  1  0  0  0  0
 17 21  1  0  0  0  0
 17 22  1  0  0  0  0
 17 43  1  0  0  0  0
 18 23  1  0  0  0  0
 18 44  1  0  0  0  0
 18 45  1  0  0  0  0
 19 46  1  0  0  0  0
 19 47  1  0  0  0  0
 19 48  1  0  0  0  0
 20 22  1  0  0  0  0
 20 49  1  0  0  0  0
 21 24  2  0  0  0  0
 21 25  1  0  0  0  0
 22 50  1  0  0  0  0
 22 51  1  0  0  0  0
 23 25  1  0  0  0  0
 23 52  1  0  0  0  0
 23 53  1  0  0  0  0
 24 26  1  0  0  0  0
 24 27  1  0  0  0  0
 25 28  1  0  0  0  0
 25 29  1  0  0  0  0
 26 30  1  0  0  0  0
 26 31  1  0  0  0  0
 26 54  1  0  0  0  0
 27 28  1  0  0  0  0
 27 55  1  0  0  0  0
 27 56  1  0  0  0  0
 28 57  1  0  0  0  0
 28 58  1  0  0  0  0
 29 59  1  0  0  0  0
 29 60  1  0  0  0  0
 29 61  1  0  0  0  0
 30 62  1  0  0  0  0
 30 63  1  0  0  0  0
 30 64  1  0  0  0  0
 31 65  1  0  0  0  0
 31 66  1  0  0  0  0
 31 67  1  0  0  0  0
M  END
>  <Code-name>
157

>  <Compound>
Erinacine

>  <Specie>
Hericium sp.

>  <Reference>
Mehreen Zeb and Chow H. Lee, 2028

>  <Organism>
Antibacterial Activity

>  <Smiles>
CC(C)C(CC1)=C2[C@@]1(C)CC[C@@](C)([C@@H]([C@@H]1[C@]3([C@@H]4O)O)O[C@@H]3OC[C@]43O)[C@@H]2CC=C1[C@@H]3O

>  <MMFF94 Energy>
345.61

>  <Total Molweight>
432.555

>  <Molweight>
432.555

>  <Monoisotopic Mass>
432.251190

>  <cLogP>
1.8313

>  <cLogS>
-3.353

>  <H-Acceptors>
6

>  <H-Donors>
4

>  <Total Surface Area>
286.27

>  <Relative PSA>
0.25291

>  <Polar Surface Area>
99.38

>  <Druglikeness>
-5.5516

>  <Mutagenic>
none

>  <Tumorigenic>
none

>  <Reproductive Effective>
none

>  <Irritant>
high

>  <Nasty Functions>


>  <Shape Index>
0.35484

>  <Molecular Flexibility>
0.22194

>  <Molecular Complexity>
1.0834

>  <Fragments>
1

>  <Non-H Atoms>
31

>  <Non-C/H Atoms>
6

>  <Metal-Atoms>
0

>  <Electronegative Atoms>
6

>  <Stereo Centers>
10

>  <Rotatable Bonds>
1

>  <Rings Closures>
6

>  <Small Rings>
6

>  <Aromatic Rings>
0

>  <Aromatic Atoms>
0

>  <sp3-Atoms>
27

>  <Symmetric atoms>
1

>  <Amides>
0

>  <Amines>
0

>  <Alkyl-Amines>
0

>  <Aromatic Amines>
0

>  <Aromatic Nitrogens>
0

>  <Basic Nitrogens>
0

>  <Acidic Oxygens>
0

>  <Stereo Configuration>
this enantiomer

> <Gold.Version>
5.8.1

> <Gold.Id.Protein>
ID_2|Prot_COX2_5IKQ_Alig|mol2

> <Gold.Goldscore.Fitness>
14.6540

> <Gold.Goldscore.Internal.Vdw>
-14.7646

> <Gold.Goldscore.Internal.Torsion>
-2.4314

> <Gold.Goldscore.External.Vdw>
12.8848

> <Gold.Goldscore.Internal.HBond>
0.0000

> <Gold.Goldscore.External.HBond>
0.6402

> <Gold.Goldscore.Internal.Correction>
-13.4933

> <Gold.Goldscore.Hbonds>
donor molecule, donor type, donor heavy atom, donor atom, acceptor molecule, acceptor atom, score
      L1  H     8    36       P1  5152  0.32

> <Gold.Goldscore.Internal.Vdw.Weighted>
-14.7646

> <Gold.Goldscore.Internal.Torsion.Weighted>
-2.4314

> <Gold.Goldscore.External.Vdw.Weighted>
17.7165

> <Gold.Goldscore.Internal.HBond.Weighted>
0.0000

> <Gold.Goldscore.External.HBond.Weighted>
0.6402

> <Gold.Goldscore.Internal.Correction.Weighted>
-13.4933

> <Gold.Protein.RotatedTorsions>
[ 5077 5068 5067 5065 ] final -151.02 input  179.94 | X-H torsion
[ 5157 5152 5151 5148 ] final -141.62 input -179.92 | X-H torsion
[ 5185 5176 5175 5173 ] final  -66.66 input -179.99 | X-H torsion
[ 5712 5703 5702 5700 ] final   -0.76 input  180.00 | X-H torsion
[ 8036 8031 8030 8027 ] final -106.75 input -179.94 | X-H torsion
[ 2749 2745 2743 2740 ] final  -56.84 input  -60.05 | X-H torsion
[ 1366 1361 1360 1357 ] final  -44.63 input  -60.09 | X-H torsion
[ 2556 2551 2550 2547 ] final  -59.47 input   59.97 | X-H torsion

> <Gold.Protein.ActiveResidues>
 PRO86   VAL89   HIS90   LEU93   THR94   ILE112  MET113  TYR115  VAL116  LEU117 
 THR118  SER119  ARG120  SER121  LEU123  ILE124  GLN192  SER194  PHE198  PHE201 
 ALA202  GLN203  PHE205  THR206  PHE209  PHE210  VAL228  ILE341  ILE343  VAL344 
 ILE345  GLU346  ASP347  TYR348  VAL349  GLN350  HIS351  LEU352  SER353  GLY354 
 TYR355  PHE357  LEU359  LYS360  GLU380  PHE381  ASN382  THR383  LEU384  TYR385 
 HIS386  TRP387  LEU390  VAL434  LEU507  ARG513  ALA516  ILE517  PHE518  GLY519 
 GLU520  THR521  MET522  VAL523  GLU524  VAL525  GLY526  ALA527  PRO528  PHE529 
 SER530  LEU531  LYS532  GLY533  LEU534  MET535  COH609 

> <Gold.Protein.RotatedAtoms>
   17.7776    7.7734    2.9373 H   0  0  0  0  0  0  0  0  0  0  0  0  # atno 1366 bound_to 1361
    4.7438   -9.0400    8.0269 H   0  0  0  0  0  0  0  0  0  0  0  0  # atno 2556 bound_to 2551
   -3.5981   -0.1596    1.3653 H   0  0  0  0  0  0  0  0  0  0  0  0  # atno 2749 bound_to 2745
    2.1395   -1.9066    3.7457 H   0  0  0  0  0  0  0  0  0  0  0  0  # atno 5077 bound_to 5068
   11.8802   -1.3763    9.2618 H   0  0  0  0  0  0  0  0  0  0  0  0  # atno 5157 bound_to 5152
   16.5994   -0.4673    4.9511 H   0  0  0  0  0  0  0  0  0  0  0  0  # atno 5185 bound_to 5176
    1.8563   -0.9387    2.8122 H   0  0  0  0  0  0  0  0  0  0  0  0  # atno 5712 bound_to 5703
    6.2564    4.5301    3.7114 H   0  0  0  0  0  0  0  0  0  0  0  0  # atno 8036 bound_to 8031
    0.7189   -1.4385    3.9007 LP  0  0  0  0  0  0  0  0  0  0  0  0  # atno 8267 bound_to 5068
    1.2035   -2.9470    4.2960 LP  0  0  0  0  0  0  0  0  0  0  0  0  # atno 8268 bound_to 5068
   13.0774   -2.2857    9.1935 LP  0  0  0  0  0  0  0  0  0  0  0  0  # atno 8279 bound_to 5152
   11.5474   -2.8430    9.3168 LP  0  0  0  0  0  0  0  0  0  0  0  0  # atno 8280 bound_to 5152
   15.4511    0.4991    5.0295 LP  0  0  0  0  0  0  0  0  0  0  0  0  # atno 8281 bound_to 5176
   15.2727   -1.0544    4.5590 LP  0  0  0  0  0  0  0  0  0  0  0  0  # atno 8282 bound_to 5176
    1.9332    0.5516    2.6342 LP  0  0  0  0  0  0  0  0  0  0  0  0  # atno 8283 bound_to 5703
    3.2104   -0.4374    2.3954 LP  0  0  0  0  0  0  0  0  0  0  0  0  # atno 8284 bound_to 5703
    5.1047    3.6279    3.3658 LP  0  0  0  0  0  0  0  0  0  0  0  0  # atno 8309 bound_to 8031
    5.0008    5.2568    3.3176 LP  0  0  0  0  0  0  0  0  0  0  0  0  # atno 8310 bound_to 8031
   -2.7516   -0.5461    0.1832 LP  0  0  0  0  0  0  0  0  0  0  0  0  # atno 8323 bound_to 2745
   -4.1502    0.2843    0.0381 LP  0  0  0  0  0  0  0  0  0  0  0  0  # atno 8324 bound_to 2745
   18.8734    6.7742    3.1919 LP  0  0  0  0  0  0  0  0  0  0  0  0  # atno 8335 bound_to 1361
   18.0581    6.8545    1.7793 LP  0  0  0  0  0  0  0  0  0  0  0  0  # atno 8336 bound_to 1361
    4.5768   -9.1221    6.5338 LP  0  0  0  0  0  0  0  0  0  0  0  0  # atno 8342 bound_to 2551
    5.2787  -10.3055    7.4133 LP  0  0  0  0  0  0  0  0  0  0  0  0  # atno 8343 bound_to 2551

