
158|LMW3_p|sdf|158|dock8
  -GOLD-   6 92216583D 1   1.00000     0.00000

 46 45  0  0  0  0  0  0  0  0  2 V2000
    4.9302    1.5726    3.4595 O   0  0  0  0  0  0  0  0  0  0  0  0
    5.0326    0.7350    2.5803 C   0  0  0  0  0  0  0  0  0  0  0  0
    4.4520   -0.4739    2.7156 O   0  5  0  0  0  0  0  0  0  0  0  0
    5.7645    0.8602    1.2717 C   0  0  0  0  0  0  0  0  0  0  0  0
    6.8760   -0.1796    1.1445 C   0  0  0  0  0  0  0  0  0  0  0  0
    7.8802   -0.0642    2.2917 C   0  0  0  0  0  0  0  0  0  0  0  0
    8.8680   -1.2320    2.2861 C   0  0  0  0  0  0  0  0  0  0  0  0
    9.7766   -1.1981    3.5161 C   0  0  0  0  0  0  0  0  0  0  0  0
   10.8613   -2.2735    3.4362 C   0  0  0  0  0  0  0  0  0  0  0  0
   10.2604   -3.6773    3.5246 C   0  0  0  0  0  0  0  0  0  0  0  0
   11.3489   -4.7386    3.6935 C   0  0  0  0  0  0  0  0  0  0  0  0
   10.7673   -6.1505    3.6063 C   0  0  0  0  0  0  0  0  0  0  0  0
   11.8556   -7.2118    3.7752 C   0  0  0  0  0  0  0  0  0  0  0  0
   12.3727   -7.2544    5.2141 C   0  0  0  0  0  0  0  0  0  0  0  0
   13.2795   -8.4646    5.4438 C   0  0  0  0  0  0  0  0  0  0  0  0
   13.9209   -8.4232    6.8306 C   0  0  0  0  0  0  0  0  0  0  0  0
   14.8264   -9.6225    7.0614 C   0  0  0  0  0  0  0  0  0  0  0  0
    6.1951    1.8377    1.2072 H   0  0  0  0  0  0  0  0  0  0  0  0
    5.0631    0.6972    0.4803 H   0  0  0  0  0  0  0  0  0  0  0  0
    7.3881   -0.0303    0.2169 H   0  0  0  0  0  0  0  0  0  0  0  0
    6.4330   -1.1529    1.1808 H   0  0  0  0  0  0  0  0  0  0  0  0
    7.3492   -0.0615    3.2206 H   0  0  0  0  0  0  0  0  0  0  0  0
    8.4314    0.8445    2.1676 H   0  0  0  0  0  0  0  0  0  0  0  0
    9.4722   -1.1731    1.4049 H   0  0  0  0  0  0  0  0  0  0  0  0
    8.3109   -2.1453    2.3031 H   0  0  0  0  0  0  0  0  0  0  0  0
    9.1844   -1.3649    4.3915 H   0  0  0  0  0  0  0  0  0  0  0  0
   10.2528   -0.2408    3.5576 H   0  0  0  0  0  0  0  0  0  0  0  0
   11.5478   -2.1367    4.2454 H   0  0  0  0  0  0  0  0  0  0  0  0
   11.3615   -2.1791    2.4951 H   0  0  0  0  0  0  0  0  0  0  0  0
    9.7131   -3.8791    2.6276 H   0  0  0  0  0  0  0  0  0  0  0  0
    9.6163   -3.7156    4.3781 H   0  0  0  0  0  0  0  0  0  0  0  0
   11.8141   -4.6116    4.6487 H   0  0  0  0  0  0  0  0  0  0  0  0
   12.0626   -4.6183    2.9054 H   0  0  0  0  0  0  0  0  0  0  0  0
   10.3020   -6.2774    2.6511 H   0  0  0  0  0  0  0  0  0  0  0  0
   10.0535   -6.2708    4.3943 H   0  0  0  0  0  0  0  0  0  0  0  0
   12.6695   -6.9838    3.1191 H   0  0  0  0  0  0  0  0  0  0  0  0
   11.4350   -8.1670    3.5392 H   0  0  0  0  0  0  0  0  0  0  0  0
   11.5390   -7.3118    5.8823 H   0  0  0  0  0  0  0  0  0  0  0  0
   12.9423   -6.3667    5.3944 H   0  0  0  0  0  0  0  0  0  0  0  0
   14.0514   -8.4672    4.7028 H   0  0  0  0  0  0  0  0  0  0  0  0
   12.6841   -9.3508    5.3736 H   0  0  0  0  0  0  0  0  0  0  0  0
   13.1486   -8.4230    7.5710 H   0  0  0  0  0  0  0  0  0  0  0  0
   14.5148   -7.5359    6.8996 H   0  0  0  0  0  0  0  0  0  0  0  0
   15.6093   -9.6240    6.3320 H   0  0  0  0  0  0  0  0  0  0  0  0
   14.2551  -10.5229    6.9734 H   0  0  0  0  0  0  0  0  0  0  0  0
   15.2521   -9.5646    8.0414 H   0  0  0  0  0  0  0  0  0  0  0  0
  1  2  2  0  0  0  0
  2  3  1  0  0  0  0
  2  4  1  0  0  0  0
  4  5  1  0  0  0  0
  4 18  1  0  0  0  0
  4 19  1  0  0  0  0
  5  6  1  0  0  0  0
  5 20  1  0  0  0  0
  5 21  1  0  0  0  0
  6  7  1  0  0  0  0
  6 22  1  0  0  0  0
  6 23  1  0  0  0  0
  7  8  1  0  0  0  0
  7 24  1  0  0  0  0
  7 25  1  0  0  0  0
  8  9  1  0  0  0  0
  8 26  1  0  0  0  0
  8 27  1  0  0  0  0
  9 10  1  0  0  0  0
  9 28  1  0  0  0  0
  9 29  1  0  0  0  0
 10 11  1  0  0  0  0
 10 30  1  0  0  0  0
 10 31  1  0  0  0  0
 11 12  1  0  0  0  0
 11 32  1  0  0  0  0
 11 33  1  0  0  0  0
 12 13  1  0  0  0  0
 12 34  1  0  0  0  0
 12 35  1  0  0  0  0
 13 14  1  0  0  0  0
 13 36  1  0  0  0  0
 13 37  1  0  0  0  0
 14 15  1  0  0  0  0
 14 38  1  0  0  0  0
 14 39  1  0  0  0  0
 15 16  1  0  0  0  0
 15 40  1  0  0  0  0
 15 41  1  0  0  0  0
 16 17  1  0  0  0  0
 16 42  1  0  0  0  0
 16 43  1  0  0  0  0
 17 44  1  0  0  0  0
 17 45  1  0  0  0  0
 17 46  1  0  0  0  0
M  CHG  1   3  -1
M  END
>  <Code-name>
158

>  <Compound>
Pentadecanoic acid

>  <Specie>
Pleurotus djamor

>  <Reference>
Mehreen Zeb and Chow H. Lee, 2029

>  <Organism>
N/A

>  <Smiles>
CCCCCCCCCCCCCCC(O)=O

>  <MMFF94 Energy>
-30.343

>  <Total Molweight>
242.401

>  <Molweight>
242.401

>  <Monoisotopic Mass>
242.224580

>  <cLogP>
5.6081

>  <cLogS>
-3.969

>  <H-Acceptors>
2

>  <H-Donors>
1

>  <Total Surface Area>
228.74

>  <Relative PSA>
0.11428

>  <Polar Surface Area>
37.3

>  <Druglikeness>
-25.216

>  <Mutagenic>
none

>  <Tumorigenic>
none

>  <Reproductive Effective>
none

>  <Irritant>
none

>  <Nasty Functions>


>  <Shape Index>
0.94118

>  <Molecular Flexibility>
0.52666

>  <Molecular Complexity>
0.34256

>  <Fragments>
1

>  <Non-H Atoms>
17

>  <Non-C/H Atoms>
2

>  <Metal-Atoms>
0

>  <Electronegative Atoms>
2

>  <Stereo Centers>
0

>  <Rotatable Bonds>
13

>  <Rings Closures>
0

>  <Small Rings>
0

>  <Aromatic Rings>
0

>  <Aromatic Atoms>
0

>  <sp3-Atoms>
15

>  <Symmetric atoms>
0

>  <Amides>
0

>  <Amines>
0

>  <Alkyl-Amines>
0

>  <Aromatic Amines>
0

>  <Aromatic Nitrogens>
0

>  <Basic Nitrogens>
0

>  <Acidic Oxygens>
1

>  <Stereo Configuration>


> <Gold.Version>
5.8.1

> <Gold.Id.Protein>
ID_2|Prot_COX2_5IKQ_Alig|mol2

> <Gold.Goldscore.Fitness>
57.3829

> <Gold.Goldscore.Internal.Vdw>
-11.1716

> <Gold.Goldscore.Internal.Torsion>
-2.4965

> <Gold.Goldscore.External.Vdw>
37.6217

> <Gold.Goldscore.Internal.HBond>
0.0000

> <Gold.Goldscore.External.HBond>
8.5253

> <Gold.Goldscore.Internal.Correction>
-10.7959

> <Gold.Goldscore.Hbonds>
donor molecule, donor type, donor heavy atom, donor atom, acceptor molecule, acceptor atom, score
      P1  H  5068  5077       L1     3  0.28
      P1  H  5703  5712       L1     3  0.25
      P1  H  8031  8036       L1     1  0.89

> <Gold.Goldscore.Internal.Vdw.Weighted>
-11.1716

> <Gold.Goldscore.Internal.Torsion.Weighted>
-2.4965

> <Gold.Goldscore.External.Vdw.Weighted>
51.7298

> <Gold.Goldscore.Internal.HBond.Weighted>
0.0000

> <Gold.Goldscore.External.HBond.Weighted>
8.5253

> <Gold.Goldscore.Internal.Correction.Weighted>
-10.7959

> <Gold.Protein.RotatedTorsions>
[ 5077 5068 5067 5065 ] final -164.83 input  179.94 | X-H torsion
[ 5157 5152 5151 5148 ] final  -71.23 input -179.92 | X-H torsion
[ 5185 5176 5175 5173 ] final   84.35 input -179.99 | X-H torsion
[ 5712 5703 5702 5700 ] final  120.56 input  180.00 | X-H torsion
[ 8036 8031 8030 8027 ] final  149.69 input -179.94 | X-H torsion
[ 2749 2745 2743 2740 ] final  -76.67 input  -60.05 | X-H torsion
[ 1366 1361 1360 1357 ] final -144.71 input  -60.09 | X-H torsion
[ 2556 2551 2550 2547 ] final   17.53 input   59.97 | X-H torsion

> <Gold.Protein.ActiveResidues>
 PRO86   VAL89   HIS90   LEU93   THR94   ILE112  MET113  TYR115  VAL116  LEU117 
 THR118  SER119  ARG120  SER121  LEU123  ILE124  GLN192  SER194  PHE198  PHE201 
 ALA202  GLN203  PHE205  THR206  PHE209  PHE210  VAL228  ILE341  ILE343  VAL344 
 ILE345  GLU346  ASP347  TYR348  VAL349  GLN350  HIS351  LEU352  SER353  GLY354 
 TYR355  PHE357  LEU359  LYS360  GLU380  PHE381  ASN382  THR383  LEU384  TYR385 
 HIS386  TRP387  LEU390  VAL434  LEU507  ARG513  ALA516  ILE517  PHE518  GLY519 
 GLU520  THR521  MET522  VAL523  GLU524  VAL525  GLY526  ALA527  PRO528  PHE529 
 SER530  LEU531  LYS532  GLY533  LEU534  MET535  COH609 

> <Gold.Protein.RotatedAtoms>
   18.6937    7.0524    3.2671 H   0  0  0  0  0  0  0  0  0  0  0  0  # atno 1366 bound_to 1361
    5.1446   -9.9339    7.9342 H   0  0  0  0  0  0  0  0  0  0  0  0  # atno 2556 bound_to 2551
   -3.3623   -0.2934    1.3427 H   0  0  0  0  0  0  0  0  0  0  0  0  # atno 2749 bound_to 2745
    2.0625   -1.7375    3.7072 H   0  0  0  0  0  0  0  0  0  0  0  0  # atno 5077 bound_to 5068
   11.3605   -2.1243    9.2969 H   0  0  0  0  0  0  0  0  0  0  0  0  # atno 5157 bound_to 5152
   15.1015   -0.6224    4.7061 H   0  0  0  0  0  0  0  0  0  0  0  0  # atno 5185 bound_to 5176
    3.0507   -0.4061    2.3910 H   0  0  0  0  0  0  0  0  0  0  0  0  # atno 5712 bound_to 5703
    5.3875    3.6975    3.4168 H   0  0  0  0  0  0  0  0  0  0  0  0  # atno 8036 bound_to 8031
    0.5918   -1.6034    3.9904 LP  0  0  0  0  0  0  0  0  0  0  0  0  # atno 8267 bound_to 5068
    1.4228   -2.9845    4.2523 LP  0  0  0  0  0  0  0  0  0  0  0  0  # atno 8268 bound_to 5068
   12.6190   -1.3007    9.2443 LP  0  0  0  0  0  0  0  0  0  0  0  0  # atno 8279 bound_to 5152
   12.6273   -2.9335    9.2240 LP  0  0  0  0  0  0  0  0  0  0  0  0  # atno 8280 bound_to 5152
   16.5732   -0.9197    4.7717 LP  0  0  0  0  0  0  0  0  0  0  0  0  # atno 8281 bound_to 5176
   15.9491    0.5507    5.1109 LP  0  0  0  0  0  0  0  0  0  0  0  0  # atno 8282 bound_to 5176
    1.7981   -1.0672    2.8935 LP  0  0  0  0  0  0  0  0  0  0  0  0  # atno 8283 bound_to 5703
    1.9120    0.5422    2.6417 LP  0  0  0  0  0  0  0  0  0  0  0  0  # atno 8284 bound_to 5703
    4.8135    5.0774    3.2541 LP  0  0  0  0  0  0  0  0  0  0  0  0  # atno 8309 bound_to 8031
    6.3345    4.8061    3.7828 LP  0  0  0  0  0  0  0  0  0  0  0  0  # atno 8310 bound_to 8031
   -2.8972   -0.4269   -0.0818 LP  0  0  0  0  0  0  0  0  0  0  0  0  # atno 8323 bound_to 2745
   -4.2869    0.3254    0.3300 LP  0  0  0  0  0  0  0  0  0  0  0  0  # atno 8324 bound_to 2745
   18.3032    6.6616    1.8676 LP  0  0  0  0  0  0  0  0  0  0  0  0  # atno 8335 bound_to 1361
   17.5324    7.8296    2.7092 LP  0  0  0  0  0  0  0  0  0  0  0  0  # atno 8336 bound_to 1361
    4.5183   -8.6099    7.5893 LP  0  0  0  0  0  0  0  0  0  0  0  0  # atno 8342 bound_to 2551
    4.8576   -9.7483    6.4688 LP  0  0  0  0  0  0  0  0  0  0  0  0  # atno 8343 bound_to 2551

