
015|LMW3_p|sdf|15|dock2
  -GOLD-   6 722 3483D 1   1.00000     0.00000

 78 80  0  0  0  0  0  0  0  0  3 V2000
   13.0338    0.6840    1.3134 O   0  0  0  0  0  0  0  0  0  0  0  0
   13.1536    0.9669    2.4938 C   0  0  0  0  0  0  0  0  0  0  0  0
   13.3794    2.2389    2.8729 O   0  5  0  0  0  0  0  0  0  0  0  0
   13.0925    0.0098    3.6644 C   0  0  1  0  0  0  0  0  0  0  0  0
   11.7515   -0.7688    3.6437 C   0  0  2  0  0  0  0  0  0  0  0  0
   14.3076   -0.9413    3.5774 C   0  0  0  0  0  0  0  0  0  0  0  0
   10.4412    0.0129    3.3256 C   0  0  2  0  0  0  0  0  0  0  0  0
   11.4238   -1.4356    5.0095 C   0  0  0  0  0  0  0  0  0  0  0  0
   15.4824   -0.4249    2.7317 C   0  0  0  0  0  0  0  0  0  0  0  0
    9.3426   -1.0053    3.7989 C   0  0  1  0  0  0  0  0  0  0  0  0
   10.1834    0.3463    1.8461 C   0  0  0  0  0  0  0  0  0  0  0  0
   10.4164    1.3541    4.1304 C   0  0  0  0  0  0  0  0  0  0  0  0
    9.8928   -1.3975    5.1854 C   0  0  0  0  0  0  0  0  0  0  0  0
   16.6630   -1.4003    2.6748 C   0  0  0  0  0  0  0  0  0  0  0  0
    7.9717   -0.3390    3.6982 C   0  0  0  0  0  0  0  0  0  0  0  0
    9.2530   -2.3237    2.9688 C   0  0  0  0  0  0  0  0  0  0  0  0
    8.7226    0.6507    1.5863 C   0  0  0  0  0  0  0  0  0  0  0  0
   17.8407   -0.8827    1.8270 C   0  0  0  0  0  0  0  0  0  0  0  0
    7.6962    0.3657    2.4237 C   0  0  0  0  0  0  0  0  0  0  0  0
    7.0636   -0.3818    4.6879 C   0  0  0  0  0  0  0  0  0  0  0  0
   18.1988   -1.9127    0.7527 C   0  0  0  0  0  0  0  0  0  0  0  0
   19.0750   -0.5706    2.6747 C   0  0  0  0  0  0  0  0  0  0  0  0
    6.2090    0.7227    2.1315 C   0  0  2  0  0  0  0  0  0  0  0  0
    5.7281    0.2939    4.6414 C   0  0  0  0  0  0  0  0  0  0  0  0
    5.5979    1.3003    3.4759 C   0  0  2  0  0  0  0  0  0  0  0  0
    5.4405   -0.5531    1.6517 C   0  0  0  0  0  0  0  0  0  0  0  0
    6.0720    1.8150    1.0358 C   0  0  0  0  0  0  0  0  0  0  0  0
    4.1797    1.8864    3.4077 C   0  0  0  0  0  0  0  0  0  0  0  0
    6.2836   -1.6068    0.9211 C   0  0  0  0  0  0  0  0  0  0  0  0
    3.1218    1.2508    2.8741 C   0  0  0  0  0  0  0  0  0  0  0  0
    4.0032    3.2428    4.0434 C   0  0  0  0  0  0  0  0  0  0  0  0
    6.5602   -1.1933   -0.5004 C   0  0  0  0  0  0  0  0  0  0  0  0
    5.7967   -0.6546   -1.2832 O   0  0  0  0  0  0  0  0  0  0  0  0
    7.8246   -1.4816   -0.8693 O   0  5  0  0  0  0  0  0  0  0  0  0
   13.1345    0.5429    4.5911 H   0  0  0  0  0  0  0  0  0  0  0  0
   11.9699   -1.4405    2.8399 H   0  0  0  0  0  0  0  0  0  0  0  0
   13.9750   -1.8655    3.1529 H   0  0  0  0  0  0  0  0  0  0  0  0
   14.6804   -1.0396    4.5755 H   0  0  0  0  0  0  0  0  0  0  0  0
   11.8967   -0.8954    5.8030 H   0  0  0  0  0  0  0  0  0  0  0  0
   11.7820   -2.4436    5.0335 H   0  0  0  0  0  0  0  0  0  0  0  0
   15.8240    0.4977    3.1524 H   0  0  0  0  0  0  0  0  0  0  0  0
   15.1233   -0.3030    1.7311 H   0  0  0  0  0  0  0  0  0  0  0  0
   10.4753   -0.4903    1.2463 H   0  0  0  0  0  0  0  0  0  0  0  0
   10.7547    1.2157    1.5959 H   0  0  0  0  0  0  0  0  0  0  0  0
   11.1180    2.0396    3.7030 H   0  0  0  0  0  0  0  0  0  0  0  0
   10.6798    1.1634    5.1498 H   0  0  0  0  0  0  0  0  0  0  0  0
    9.4342    1.7768    4.0890 H   0  0  0  0  0  0  0  0  0  0  0  0
    9.6164   -0.6698    5.9196 H   0  0  0  0  0  0  0  0  0  0  0  0
    9.5030   -2.3353    5.5224 H   0  0  0  0  0  0  0  0  0  0  0  0
   16.3213   -2.3229    2.2541 H   0  0  0  0  0  0  0  0  0  0  0  0
   17.0220   -1.5220    3.6754 H   0  0  0  0  0  0  0  0  0  0  0  0
   10.0992   -2.9411    3.1874 H   0  0  0  0  0  0  0  0  0  0  0  0
    9.2436   -2.0881    1.9251 H   0  0  0  0  0  0  0  0  0  0  0  0
    8.3549   -2.8459    3.2247 H   0  0  0  0  0  0  0  0  0  0  0  0
    8.4889    1.1151    0.6948 H   0  0  0  0  0  0  0  0  0  0  0  0
   17.5265    0.0320    1.3693 H   0  0  0  0  0  0  0  0  0  0  0  0
    7.3028   -0.9165    5.5375 H   0  0  0  0  0  0  0  0  0  0  0  0
   17.3516   -2.0775    0.1201 H   0  0  0  0  0  0  0  0  0  0  0  0
   18.4790   -2.8334    1.2205 H   0  0  0  0  0  0  0  0  0  0  0  0
   19.0159   -1.5473    0.1665 H   0  0  0  0  0  0  0  0  0  0  0  0
   18.8043    0.0950    3.4675 H   0  0  0  0  0  0  0  0  0  0  0  0
   19.8215   -0.1102    2.0617 H   0  0  0  0  0  0  0  0  0  0  0  0
   19.4628   -1.4783    3.0878 H   0  0  0  0  0  0  0  0  0  0  0  0
    5.5796    0.8182    5.5622 H   0  0  0  0  0  0  0  0  0  0  0  0
    4.9910   -0.4667    4.4898 H   0  0  0  0  0  0  0  0  0  0  0  0
    6.2112    2.1571    3.6624 H   0  0  0  0  0  0  0  0  0  0  0  0
    4.6628   -0.2373    0.9881 H   0  0  0  0  0  0  0  0  0  0  0  0
    5.0870   -1.0306    2.5416 H   0  0  0  0  0  0  0  0  0  0  0  0
    6.3490    1.4051    0.0871 H   0  0  0  0  0  0  0  0  0  0  0  0
    6.7146    2.6378    1.2701 H   0  0  0  0  0  0  0  0  0  0  0  0
    5.0580    2.1544    0.9954 H   0  0  0  0  0  0  0  0  0  0  0  0
    5.7537   -2.5364    0.9173 H   0  0  0  0  0  0  0  0  0  0  0  0
    7.2180   -1.7072    1.4326 H   0  0  0  0  0  0  0  0  0  0  0  0
    3.2429    0.3227    2.4393 H   0  0  0  0  0  0  0  0  0  0  0  0
    2.1888    1.6910    2.8993 H   0  0  0  0  0  0  0  0  0  0  0  0
    4.5851    3.2951    4.9399 H   0  0  0  0  0  0  0  0  0  0  0  0
    2.9705    3.3945    4.2791 H   0  0  0  0  0  0  0  0  0  0  0  0
    4.3287    4.0010    3.3622 H   0  0  0  0  0  0  0  0  0  0  0  0
  1  2  2  0  0  0  0
  2  3  1  0  0  0  0
  2  4  1  0  0  0  0
  4  5  1  0  0  0  0
  4  6  1  0  0  0  0
  4 35  1  0  0  0  0
  5  7  1  0  0  0  0
  5  8  1  0  0  0  0
  5 36  1  0  0  0  0
  6  9  1  0  0  0  0
  6 37  1  0  0  0  0
  6 38  1  0  0  0  0
  7 10  1  0  0  0  0
  7 11  1  0  0  0  0
  7 12  1  0  0  0  0
  8 13  1  0  0  0  0
  8 39  1  0  0  0  0
  8 40  1  0  0  0  0
  9 14  1  0  0  0  0
  9 41  1  0  0  0  0
  9 42  1  0  0  0  0
 10 15  1  0  0  0  0
 10 16  1  0  0  0  0
 10 13  1  0  0  0  0
 11 17  1  0  0  0  0
 11 43  1  0  0  0  0
 11 44  1  0  0  0  0
 12 45  1  0  0  0  0
 12 46  1  0  0  0  0
 12 47  1  0  0  0  0
 13 48  1  0  0  0  0
 13 49  1  0  0  0  0
 14 18  1  0  0  0  0
 14 50  1  0  0  0  0
 14 51  1  0  0  0  0
 15 19  1  0  0  0  0
 15 20  2  0  0  0  0
 16 52  1  0  0  0  0
 16 53  1  0  0  0  0
 16 54  1  0  0  0  0
 17 19  2  0  0  0  0
 17 55  1  0  0  0  0
 18 21  1  0  0  0  0
 18 22  1  0  0  0  0
 18 56  1  0  0  0  0
 19 23  1  0  0  0  0
 20 24  1  0  0  0  0
 20 57  1  0  0  0  0
 21 58  1  0  0  0  0
 21 59  1  0  0  0  0
 21 60  1  0  0  0  0
 22 61  1  0  0  0  0
 22 62  1  0  0  0  0
 22 63  1  0  0  0  0
 23 25  1  0  0  0  0
 23 26  1  0  0  0  0
 23 27  1  0  0  0  0
 24 25  1  0  0  0  0
 24 64  1  0  0  0  0
 24 65  1  0  0  0  0
 25 28  1  0  0  0  0
 25 66  1  0  0  0  0
 26 29  1  0  0  0  0
 26 67  1  0  0  0  0
 26 68  1  0  0  0  0
 27 69  1  0  0  0  0
 27 70  1  0  0  0  0
 27 71  1  0  0  0  0
 28 30  2  0  0  0  0
 28 31  1  0  0  0  0
 29 32  1  0  0  0  0
 29 72  1  0  0  0  0
 29 73  1  0  0  0  0
 30 74  1  0  0  0  0
 30 75  1  0  0  0  0
 31 76  1  0  0  0  0
 31 77  1  0  0  0  0
 31 78  1  0  0  0  0
 32 33  2  0  0  0  0
 32 34  1  0  0  0  0
M  CHG  1   3  -1
M  CHG  1  34  -1
M  END
>  <Code-name>
015

>  <Compound>
3,4-seco-5Î²-Lanosta-7,9(11),4(29)-trien-3,21-dioic acid

>  <Specie>
Ganoderma tsugae

>  <Reference>
LIN et al., 2017

>  <Organism>
Antitumoral Activity

>  <Smiles>
CC(C)CCC[C@H]([C@@H](CC1)[C@@](C)(CC=C2[C@@]3(C)CCC(O)=O)[C@]1(C)C2=CC[C@@H]3C(C)=C)C(O)=O

>  <MMFF94 Energy>
47.764

>  <Total Molweight>
470.691

>  <Molweight>
470.691

>  <Monoisotopic Mass>
470.339610

>  <cLogP>
7.1023

>  <cLogS>
-5.748

>  <H-Acceptors>
4

>  <H-Donors>
2

>  <Total Surface Area>
372

>  <Relative PSA>
0.14054

>  <Polar Surface Area>
74.6

>  <Druglikeness>
-22.198

>  <Mutagenic>
none

>  <Tumorigenic>
none

>  <Reproductive Effective>
none

>  <Irritant>
none

>  <Nasty Functions>


>  <Shape Index>
0.47059

>  <Molecular Flexibility>
0.42329

>  <Molecular Complexity>
0.99474

>  <Fragments>
1

>  <Non-H Atoms>
34

>  <Non-C/H Atoms>
4

>  <Metal-Atoms>
0

>  <Electronegative Atoms>
4

>  <Stereo Centers>
6

>  <Rotatable Bonds>
10

>  <Rings Closures>
3

>  <Small Rings>
3

>  <Aromatic Rings>
0

>  <Aromatic Atoms>
0

>  <sp3-Atoms>
24

>  <Symmetric atoms>
1

>  <Amides>
0

>  <Amines>
0

>  <Alkyl-Amines>
0

>  <Aromatic Amines>
0

>  <Aromatic Nitrogens>
0

>  <Basic Nitrogens>
0

>  <Acidic Oxygens>
2

>  <Stereo Configuration>
this enantiomer

> <Gold.Version>
5.8.1

> <Gold.Id.Protein>
ID_2|Prot_COX2_5IKQ_Alig|mol2

> <Gold.Goldscore.Fitness>
-34.4804

> <Gold.Goldscore.Internal.Vdw>
-28.6701

> <Gold.Goldscore.Internal.Torsion>
-12.9486

> <Gold.Goldscore.External.Vdw>
-12.0340

> <Gold.Goldscore.Internal.HBond>
0.0000

> <Gold.Goldscore.External.HBond>
0.0000

> <Gold.Goldscore.Internal.Correction>
-23.6850

> <Gold.Goldscore.Internal.Vdw.Weighted>
-28.6701

> <Gold.Goldscore.Internal.Torsion.Weighted>
-12.9486

> <Gold.Goldscore.External.Vdw.Weighted>
-16.5467

> <Gold.Goldscore.Internal.HBond.Weighted>
0.0000

> <Gold.Goldscore.External.HBond.Weighted>
0.0000

> <Gold.Goldscore.Internal.Correction.Weighted>
-23.6850

> <Gold.Protein.RotatedTorsions>
[ 5077 5068 5067 5065 ] final -172.11 input  179.94 | X-H torsion
[ 5157 5152 5151 5148 ] final  -63.54 input -179.92 | X-H torsion
[ 5185 5176 5175 5173 ] final -121.58 input -179.99 | X-H torsion
[ 5712 5703 5702 5700 ] final    1.14 input  180.00 | X-H torsion
[ 8036 8031 8030 8027 ] final  -90.66 input -179.94 | X-H torsion
[ 2749 2745 2743 2740 ] final   61.21 input  -60.05 | X-H torsion
[ 1366 1361 1360 1357 ] final -120.98 input  -60.09 | X-H torsion
[ 2556 2551 2550 2547 ] final  -61.44 input   59.97 | X-H torsion

> <Gold.Protein.ActiveResidues>
 PRO86   VAL89   HIS90   LEU93   THR94   ILE112  MET113  TYR115  VAL116  LEU117 
 THR118  SER119  ARG120  SER121  LEU123  ILE124  GLN192  SER194  PHE198  PHE201 
 ALA202  GLN203  PHE205  THR206  PHE209  PHE210  VAL228  ILE341  ILE343  VAL344 
 ILE345  GLU346  ASP347  TYR348  VAL349  GLN350  HIS351  LEU352  SER353  GLY354 
 TYR355  PHE357  LEU359  LYS360  GLU380  PHE381  ASN382  THR383  LEU384  TYR385 
 HIS386  TRP387  LEU390  VAL434  LEU507  ARG513  ALA516  ILE517  PHE518  GLY519 
 GLU520  THR521  MET522  VAL523  GLU524  VAL525  GLY526  ALA527  PRO528  PHE529 
 SER530  LEU531  LYS532  GLY533  LEU534  MET535  COH609 

> <Gold.Protein.RotatedAtoms>
   18.5040    7.2917    3.3785 H   0  0  0  0  0  0  0  0  0  0  0  0  # atno 1366 bound_to 1361
    4.7322   -9.0206    8.0120 H   0  0  0  0  0  0  0  0  0  0  0  0  # atno 2556 bound_to 2551
   -4.0400    0.2555    0.1542 H   0  0  0  0  0  0  0  0  0  0  0  0  # atno 2749 bound_to 2745
    2.0063   -1.6556    3.6935 H   0  0  0  0  0  0  0  0  0  0  0  0  # atno 5077 bound_to 5068
   11.3681   -2.2300    9.2950 H   0  0  0  0  0  0  0  0  0  0  0  0  # atno 5157 bound_to 5152
   16.3395    0.1934    5.1063 H   0  0  0  0  0  0  0  0  0  0  0  0  # atno 5185 bound_to 5176
    1.8769   -0.9542    2.8083 H   0  0  0  0  0  0  0  0  0  0  0  0  # atno 5712 bound_to 5703
    6.2134    4.7459    3.6949 H   0  0  0  0  0  0  0  0  0  0  0  0  # atno 8036 bound_to 8031
    0.5431   -1.7026    4.0372 LP  0  0  0  0  0  0  0  0  0  0  0  0  # atno 8267 bound_to 5068
    1.5388   -2.9835    4.2220 LP  0  0  0  0  0  0  0  0  0  0  0  0  # atno 8268 bound_to 5068
   12.5056   -1.2454    9.2546 LP  0  0  0  0  0  0  0  0  0  0  0  0  # atno 8279 bound_to 5152
   12.7316   -2.8622    9.2160 LP  0  0  0  0  0  0  0  0  0  0  0  0  # atno 8280 bound_to 5152
   14.9105   -0.1338    4.7752 LP  0  0  0  0  0  0  0  0  0  0  0  0  # atno 8281 bound_to 5176
   16.1254   -1.2148    4.6270 LP  0  0  0  0  0  0  0  0  0  0  0  0  # atno 8282 bound_to 5176
    1.9061    0.5394    2.6438 LP  0  0  0  0  0  0  0  0  0  0  0  0  # atno 8283 bound_to 5703
    3.2127   -0.4066    2.3905 LP  0  0  0  0  0  0  0  0  0  0  0  0  # atno 8284 bound_to 5703
    5.3418    3.5461    3.4485 LP  0  0  0  0  0  0  0  0  0  0  0  0  # atno 8309 bound_to 8031
    4.8153    5.0796    3.2547 LP  0  0  0  0  0  0  0  0  0  0  0  0  # atno 8310 bound_to 8031
   -3.6113   -0.2218    1.5150 LP  0  0  0  0  0  0  0  0  0  0  0  0  # atno 8323 bound_to 2745
   -2.7612   -0.5371    0.1568 LP  0  0  0  0  0  0  0  0  0  0  0  0  # atno 8324 bound_to 2745
   18.5782    6.5097    2.0952 LP  0  0  0  0  0  0  0  0  0  0  0  0  # atno 8335 bound_to 1361
   17.4842    7.6952    2.3484 LP  0  0  0  0  0  0  0  0  0  0  0  0  # atno 8336 bound_to 1361
    4.5871   -9.1494    6.5198 LP  0  0  0  0  0  0  0  0  0  0  0  0  # atno 8342 bound_to 2551
    5.2822  -10.3014    7.4452 LP  0  0  0  0  0  0  0  0  0  0  0  0  # atno 8343 bound_to 2551

