
164|LMW3_p|sdf|164|dock10
  -GOLD-   6 92219523D 1   1.00000     0.00000

 38 43  0  0  0  0  0  0  0  0  1 V2000
   14.5754    0.4077    3.7461 O   0  0  0  0  0  0  0  0  0  0  0  0
   13.3677    0.1955    3.6918 C   0  0  0  0  0  0  0  0  0  0  0  0
   12.8322   -1.1866    3.6957 C   0  0  0  0  0  0  0  0  0  0  0  0
   12.4195    1.3205    3.6251 C   0  0  0  0  0  0  0  0  0  0  0  0
   13.7236   -2.2670    3.8141 C   0  0  0  0  0  0  0  0  0  0  0  0
   11.4467   -1.4193    3.5832 C   0  0  0  0  0  0  0  0  0  0  0  0
   11.1065    1.0956    3.5136 C   0  0  0  0  0  0  0  0  0  0  0  0
   15.0814   -2.1162    3.9204 O   0  0  0  0  0  0  0  0  0  0  0  0
   13.2556   -3.5764    3.8277 C   0  0  0  0  0  0  0  0  0  0  0  0
   10.9964   -2.7565    3.6002 C   0  0  0  0  0  0  0  0  0  0  0  0
   10.4676   -0.2646    3.4310 C   0  0  2  0  0  0  0  0  0  0  0  0
   11.8912   -3.8221    3.7219 C   0  0  0  0  0  0  0  0  0  0  0  0
    9.5158   -0.2817    4.5468 O   0  0  0  0  0  0  0  0  0  0  0  0
    9.6011   -0.3621    2.2010 C   0  0  0  0  0  0  0  0  0  0  0  0
    8.2141   -0.6766    4.0725 C   0  0  2  0  0  0  0  0  0  0  0  0
    8.2859   -0.4872    2.6050 C   0  0  0  0  0  0  0  0  0  0  0  0
    9.8959   -0.2553    0.8514 C   0  0  0  0  0  0  0  0  0  0  0  0
    7.0910    0.1119    4.6520 C   0  0  1  0  0  0  0  0  0  0  0  0
    7.2150   -0.3752    1.7338 C   0  0  0  0  0  0  0  0  0  0  0  0
    8.8328   -0.2329   -0.0667 C   0  0  0  0  0  0  0  0  0  0  0  0
    6.7521    1.3538    4.0455 O   0  0  0  0  0  0  0  0  0  0  0  0
    5.8455    0.2508    3.7839 C   0  0  1  0  0  0  0  0  0  0  0  0
    7.4954   -0.2684    0.3744 C   0  0  0  0  0  0  0  0  0  0  0  0
    5.8742   -0.2565    2.3677 C   0  0  0  0  0  0  0  0  0  0  0  0
    6.4842   -0.1528   -0.5318 O   0  0  0  0  0  0  0  0  0  0  0  0
    4.8354   -0.5929    1.8214 O   0  0  0  0  0  0  0  0  0  0  0  0
   12.7715    2.2898    3.6648 H   0  0  0  0  0  0  0  0  0  0  0  0
   10.4833    1.9175    3.4816 H   0  0  0  0  0  0  0  0  0  0  0  0
   15.6376   -2.8702    3.9253 H   0  0  0  0  0  0  0  0  0  0  0  0
   13.9183   -4.3626    3.9159 H   0  0  0  0  0  0  0  0  0  0  0  0
    9.9860   -2.9510    3.5212 H   0  0  0  0  0  0  0  0  0  0  0  0
   11.5393   -4.7922    3.7333 H   0  0  0  0  0  0  0  0  0  0  0  0
    8.0001   -1.6828    4.3668 H   0  0  0  0  0  0  0  0  0  0  0  0
   10.8741   -0.1936    0.5281 H   0  0  0  0  0  0  0  0  0  0  0  0
    7.3085   -0.2017    5.6516 H   0  0  0  0  0  0  0  0  0  0  0  0
    9.0344   -0.1898   -1.0779 H   0  0  0  0  0  0  0  0  0  0  0  0
    4.8105    0.0159    3.9196 H   0  0  0  0  0  0  0  0  0  0  0  0
    5.7093    0.3254   -0.3107 H   0  0  0  0  0  0  0  0  0  0  0  0
  1  2  2  0  0  0  0
  2  3  1  0  0  0  0
  2  4  1  0  0  0  0
  3  5  2  0  0  0  0
  3  6  1  0  0  0  0
  4  7  2  0  0  0  0
  4 27  1  0  0  0  0
  5  8  1  0  0  0  0
  5  9  1  0  0  0  0
  6 10  2  0  0  0  0
  7 11  1  0  0  0  0
  7 28  1  0  0  0  0
  8 29  1  0  0  0  0
  9 12  2  0  0  0  0
  9 30  1  0  0  0  0
 10 12  1  0  0  0  0
 10 31  1  0  0  0  0
 11  6  1  0  0  0  0
 11 13  1  0  0  0  0
 11 14  1  0  0  0  0
 12 32  1  0  0  0  0
 13 15  1  0  0  0  0
 14 16  2  0  0  0  0
 14 17  1  0  0  0  0
 15 18  1  0  0  0  0
 15 16  1  0  0  0  0
 15 33  1  0  0  0  0
 16 19  1  0  0  0  0
 17 20  2  0  0  0  0
 17 34  1  0  0  0  0
 18 21  1  0  0  0  0
 18 22  1  0  0  0  0
 18 35  1  0  0  0  0
 19 23  2  0  0  0  0
 19 24  1  0  0  0  0
 20 23  1  0  0  0  0
 20 36  1  0  0  0  0
 21 22  1  0  0  0  0
 22 24  1  0  0  0  0
 22 37  1  0  0  0  0
 23 25  1  0  0  0  0
 24 26  2  0  0  0  0
 25 38  1  0  0  0  0
M  END
>  <Code-name>
164

>  <Compound>
Urnucratin A

>  <Specie>
Urnula craterium

>  <Reference>
Mehreen Zeb and Chow H. Lee, 2035

>  <Organism>
Antimicrobial Activity

>  <Smiles>
Oc(ccc1c2[C@H]([C@H]3O[C@H]33)O[C@@]1(C=C1)c4cccc(O)c4C1=O)c2C3=O

>  <MMFF94 Energy>
108.88

>  <Total Molweight>
348.309

>  <Molweight>
348.309

>  <Monoisotopic Mass>
348.063390

>  <cLogP>
1.1274

>  <cLogS>
-3.699

>  <H-Acceptors>
6

>  <H-Donors>
2

>  <Total Surface Area>
229.28

>  <Relative PSA>
0.34861

>  <Polar Surface Area>
96.36

>  <Druglikeness>
1.2186

>  <Mutagenic>
low

>  <Tumorigenic>
none

>  <Reproductive Effective>
none

>  <Irritant>
high

>  <Nasty Functions>
oxiran/aziridine

>  <Shape Index>
0.38462

>  <Molecular Flexibility>
0.12306

>  <Molecular Complexity>
1.0575

>  <Fragments>
1

>  <Non-H Atoms>
26

>  <Non-C/H Atoms>
6

>  <Metal-Atoms>
0

>  <Electronegative Atoms>
6

>  <Stereo Centers>
4

>  <Rotatable Bonds>
0

>  <Rings Closures>
6

>  <Small Rings>
7

>  <Aromatic Rings>
2

>  <Aromatic Atoms>
12

>  <sp3-Atoms>
8

>  <Symmetric atoms>
0

>  <Amides>
0

>  <Amines>
0

>  <Alkyl-Amines>
0

>  <Aromatic Amines>
0

>  <Aromatic Nitrogens>
0

>  <Basic Nitrogens>
0

>  <Acidic Oxygens>
0

>  <Stereo Configuration>
this enantiomer

> <Gold.Version>
5.8.1

> <Gold.Id.Protein>
ID_2|Prot_COX2_5IKQ_Alig|mol2

> <Gold.Goldscore.Fitness>
52.4560

> <Gold.Goldscore.Internal.Vdw>
-1.7010

> <Gold.Goldscore.Internal.Torsion>
-0.8554

> <Gold.Goldscore.External.Vdw>
35.5635

> <Gold.Goldscore.Internal.HBond>
0.0000

> <Gold.Goldscore.External.HBond>
4.2754

> <Gold.Goldscore.Internal.Correction>
-1.8373

> <Gold.Goldscore.Hbonds>
donor molecule, donor type, donor heavy atom, donor atom, acceptor molecule, acceptor atom, score
      P1  H  5068  5077       L1    26  0.09
      P1  H  5703  5712       L1    26  0.66
      P1  H  8031  8036       L1    21  0.39
      L1  H     8    29       P1   852  0.99

> <Gold.Goldscore.Internal.Vdw.Weighted>
-1.7010

> <Gold.Goldscore.Internal.Torsion.Weighted>
-0.8554

> <Gold.Goldscore.External.Vdw.Weighted>
48.8998

> <Gold.Goldscore.Internal.HBond.Weighted>
0.0000

> <Gold.Goldscore.External.HBond.Weighted>
4.2754

> <Gold.Goldscore.Internal.Correction.Weighted>
-1.8373

> <Gold.Protein.RotatedTorsions>
[ 5077 5068 5067 5065 ] final -161.29 input  179.94 | X-H torsion
[ 5157 5152 5151 5148 ] final   51.56 input -179.92 | X-H torsion
[ 5185 5176 5175 5173 ] final  -83.81 input -179.99 | X-H torsion
[ 5712 5703 5702 5700 ] final  120.40 input  180.00 | X-H torsion
[ 8036 8031 8030 8027 ] final  177.13 input -179.94 | X-H torsion
[ 2749 2745 2743 2740 ] final   18.19 input  -60.05 | X-H torsion
[ 1366 1361 1360 1357 ] final  122.23 input  -60.09 | X-H torsion
[ 2556 2551 2550 2547 ] final   18.90 input   59.97 | X-H torsion

> <Gold.Protein.ActiveResidues>
 PRO86   VAL89   HIS90   LEU93   THR94   ILE112  MET113  TYR115  VAL116  LEU117 
 THR118  SER119  ARG120  SER121  LEU123  ILE124  GLN192  SER194  PHE198  PHE201 
 ALA202  GLN203  PHE205  THR206  PHE209  PHE210  VAL228  ILE341  ILE343  VAL344 
 ILE345  GLU346  ASP347  TYR348  VAL349  GLN350  HIS351  LEU352  SER353  GLY354 
 TYR355  PHE357  LEU359  LYS360  GLU380  PHE381  ASN382  THR383  LEU384  TYR385 
 HIS386  TRP387  LEU390  VAL434  LEU507  ARG513  ALA516  ILE517  PHE518  GLY519 
 GLU520  THR521  MET522  VAL523  GLU524  VAL525  GLY526  ALA527  PRO528  PHE529 
 SER530  LEU531  LYS532  GLY533  LEU534  MET535  COH609 

> <Gold.Protein.RotatedAtoms>
   18.5742    6.6353    2.2052 H   0  0  0  0  0  0  0  0  0  0  0  0  # atno 1366 bound_to 1361
    5.1485   -9.9469    7.9211 H   0  0  0  0  0  0  0  0  0  0  0  0  # atno 2556 bound_to 2551
   -4.1733    0.2590    0.7178 H   0  0  0  0  0  0  0  0  0  0  0  0  # atno 2749 bound_to 2745
    2.0861   -1.7794    3.7156 H   0  0  0  0  0  0  0  0  0  0  0  0  # atno 5077 bound_to 5068
   12.5783   -2.7815    9.1856 H   0  0  0  0  0  0  0  0  0  0  0  0  # atno 5157 bound_to 5152
   16.5902   -0.2412    5.0149 H   0  0  0  0  0  0  0  0  0  0  0  0  # atno 5185 bound_to 5176
    3.0505   -0.4083    2.3913 H   0  0  0  0  0  0  0  0  0  0  0  0  # atno 5712 bound_to 5703
    5.7401    3.7247    3.5387 H   0  0  0  0  0  0  0  0  0  0  0  0  # atno 8036 bound_to 8031
    0.6202   -1.5580    3.9675 LP  0  0  0  0  0  0  0  0  0  0  0  0  # atno 8267 bound_to 5068
    1.3662   -2.9798    4.2653 LP  0  0  0  0  0  0  0  0  0  0  0  0  # atno 8268 bound_to 5068
   11.2132   -2.1704    9.3532 LP  0  0  0  0  0  0  0  0  0  0  0  0  # atno 8279 bound_to 5152
   12.5766   -1.2778    9.2482 LP  0  0  0  0  0  0  0  0  0  0  0  0  # atno 8280 bound_to 5152
   15.2152    0.3628    4.9587 LP  0  0  0  0  0  0  0  0  0  0  0  0  # atno 8281 bound_to 5176
   15.5196   -1.1895    4.5532 LP  0  0  0  0  0  0  0  0  0  0  0  0  # atno 8282 bound_to 5176
    1.7959   -1.0656    2.8939 LP  0  0  0  0  0  0  0  0  0  0  0  0  # atno 8283 bound_to 5703
    1.9144    0.5433    2.6409 LP  0  0  0  0  0  0  0  0  0  0  0  0  # atno 8284 bound_to 5703
    4.6276    4.6747    3.1927 LP  0  0  0  0  0  0  0  0  0  0  0  0  # atno 8309 bound_to 8031
    6.0973    5.1762    3.6979 LP  0  0  0  0  0  0  0  0  0  0  0  0  # atno 8310 bound_to 8031
   -3.0311   -0.5299    1.2977 LP  0  0  0  0  0  0  0  0  0  0  0  0  # atno 8323 bound_to 2745
   -3.1817   -0.2331   -0.3010 LP  0  0  0  0  0  0  0  0  0  0  0  0  # atno 8324 bound_to 2745
   17.4868    7.6706    2.3043 LP  0  0  0  0  0  0  0  0  0  0  0  0  # atno 8335 bound_to 1361
   18.4916    7.3195    3.5428 LP  0  0  0  0  0  0  0  0  0  0  0  0  # atno 8336 bound_to 1361
    4.5237   -8.6136    7.6108 LP  0  0  0  0  0  0  0  0  0  0  0  0  # atno 8342 bound_to 2551
    4.8475   -9.7290    6.4630 LP  0  0  0  0  0  0  0  0  0  0  0  0  # atno 8343 bound_to 2551

