
166|LMW3_p|sdf|166|dock4
  -GOLD-   6 92219533D 1   1.00000     0.00000

 43 48  0  0  0  0  0  0  0  0  1 V2000
   14.2181    0.8487    3.1230 O   0  0  0  0  0  0  0  0  0  0  0  0
   13.0731    0.5209    3.4066 C   0  0  0  0  0  0  0  0  0  0  0  0
   12.6215   -0.8924    3.6171 C   0  0  0  0  0  0  0  0  0  0  0  0
   12.0627    1.5916    3.5323 C   0  0  0  0  0  0  0  0  0  0  0  0
   13.5686   -1.9304    3.7818 C   0  0  0  0  0  0  0  0  0  0  0  0
   11.2352   -1.1797    3.6458 C   0  0  0  0  0  0  0  0  0  0  0  0
   10.7588    1.3046    3.5557 C   0  0  0  0  0  0  0  0  0  0  0  0
   14.8944   -1.5896    3.7983 O   0  0  0  0  0  0  0  0  0  0  0  0
   13.1231   -3.2448    3.9651 C   0  0  0  0  0  0  0  0  0  0  0  0
   10.8294   -2.5168    3.8242 C   0  0  0  0  0  0  0  0  0  0  0  0
   10.1952   -0.0831    3.4601 C   0  0  2  0  0  0  0  0  0  0  0  0
   15.8572   -2.6032    3.5488 C   0  0  0  0  0  0  0  0  0  0  0  0
   11.7624   -3.5366    3.9814 C   0  0  0  0  0  0  0  0  0  0  0  0
    9.2125   -0.1456    4.5481 O   0  0  0  0  0  0  0  0  0  0  0  0
    9.3793   -0.2350    2.2018 C   0  0  0  0  0  0  0  0  0  0  0  0
    7.9341   -0.5574    4.0271 C   0  0  2  0  0  0  0  0  0  0  0  0
    8.0539   -0.3986    2.5569 C   0  0  0  0  0  0  0  0  0  0  0  0
    9.7235   -0.1257    0.8653 C   0  0  0  0  0  0  0  0  0  0  0  0
    6.7787    0.2303    4.5438 C   0  0  1  0  0  0  0  0  0  0  0  0
    6.9980   -0.3047    1.6570 C   0  0  0  0  0  0  0  0  0  0  0  0
    8.6964   -0.1423   -0.0886 C   0  0  0  0  0  0  0  0  0  0  0  0
    6.4357    1.4546    3.8786 O   0  0  0  0  0  0  0  0  0  0  0  0
    5.5651    0.3293    3.6355 C   0  0  1  0  0  0  0  0  0  0  0  0
    7.3488   -0.2119    0.3116 C   0  0  0  0  0  0  0  0  0  0  0  0
    5.5910   -0.2593    2.2299 C   0  0  1  0  0  0  0  0  0  0  0  0
    6.3515   -0.1518   -0.6217 O   0  0  0  0  0  0  0  0  0  0  0  0
    4.6726    0.4807    1.4353 O   0  0  0  0  0  0  0  0  0  0  0  0
   12.3688    2.5747    3.6029 H   0  0  0  0  0  0  0  0  0  0  0  0
   10.0945    2.0892    3.6455 H   0  0  0  0  0  0  0  0  0  0  0  0
   13.8103   -4.0046    4.0892 H   0  0  0  0  0  0  0  0  0  0  0  0
    9.8227   -2.7437    3.8384 H   0  0  0  0  0  0  0  0  0  0  0  0
   15.8894   -3.2768    4.3795 H   0  0  0  0  0  0  0  0  0  0  0  0
   16.8198   -2.1556    3.4150 H   0  0  0  0  0  0  0  0  0  0  0  0
   15.5879   -3.1409    2.6638 H   0  0  0  0  0  0  0  0  0  0  0  0
   11.4453   -4.5102    4.1103 H   0  0  0  0  0  0  0  0  0  0  0  0
    7.7238   -1.5604    4.3349 H   0  0  0  0  0  0  0  0  0  0  0  0
   10.7107   -0.0344    0.5787 H   0  0  0  0  0  0  0  0  0  0  0  0
    6.9683   -0.0508    5.5587 H   0  0  0  0  0  0  0  0  0  0  0  0
    8.9304   -0.1030   -1.0930 H   0  0  0  0  0  0  0  0  0  0  0  0
    4.5285    0.0896    3.7494 H   0  0  0  0  0  0  0  0  0  0  0  0
    5.2835   -1.2841    2.2455 H   0  0  0  0  0  0  0  0  0  0  0  0
    6.4530   -0.5883   -1.4445 H   0  0  0  0  0  0  0  0  0  0  0  0
    4.9832    1.3957    1.3499 H   0  0  0  0  0  0  0  0  0  0  0  0
  1  2  2  0  0  0  0
  2  3  1  0  0  0  0
  2  4  1  0  0  0  0
  3  5  2  0  0  0  0
  3  6  1  0  0  0  0
  4  7  2  0  0  0  0
  4 28  1  0  0  0  0
  5  8  1  0  0  0  0
  5  9  1  0  0  0  0
  6 10  2  0  0  0  0
  7 11  1  0  0  0  0
  7 29  1  0  0  0  0
  8 12  1  0  0  0  0
  9 13  2  0  0  0  0
  9 30  1  0  0  0  0
 10 13  1  0  0  0  0
 10 31  1  0  0  0  0
 11  6  1  0  0  0  0
 11 14  1  0  0  0  0
 11 15  1  0  0  0  0
 12 32  1  0  0  0  0
 12 33  1  0  0  0  0
 12 34  1  0  0  0  0
 13 35  1  0  0  0  0
 14 16  1  0  0  0  0
 15 17  2  0  0  0  0
 15 18  1  0  0  0  0
 16 19  1  0  0  0  0
 16 17  1  0  0  0  0
 16 36  1  0  0  0  0
 17 20  1  0  0  0  0
 18 21  2  0  0  0  0
 18 37  1  0  0  0  0
 19 22  1  0  0  0  0
 19 23  1  0  0  0  0
 19 38  1  0  0  0  0
 20 24  2  0  0  0  0
 20 25  1  0  0  0  0
 21 24  1  0  0  0  0
 21 39  1  0  0  0  0
 22 23  1  0  0  0  0
 23 25  1  0  0  0  0
 23 40  1  0  0  0  0
 24 26  1  0  0  0  0
 25 27  1  0  0  0  0
 25 41  1  0  0  0  0
 26 42  1  0  0  0  0
 27 43  1  0  0  0  0
M  END
>  <Code-name>
166

>  <Compound>
Urnucratin C

>  <Specie>
Urnula craterium

>  <Reference>
Mehreen Zeb and Chow H. Lee, 2037

>  <Organism>
Antimicrobial Activity

>  <Smiles>
COc(cccc1[C@]2(C=C3)O[C@@H]([C@H]4O[C@H]44)c5c2ccc(O)c5[C@@H]4O)c1C3=O

>  <MMFF94 Energy>
108.42

>  <Total Molweight>
364.352

>  <Molweight>
364.352

>  <Monoisotopic Mass>
364.094690

>  <cLogP>
1.2279

>  <cLogS>
-3.284

>  <H-Acceptors>
6

>  <H-Donors>
2

>  <Total Surface Area>
246.29

>  <Relative PSA>
0.31219

>  <Polar Surface Area>
88.52

>  <Druglikeness>
1.2324

>  <Mutagenic>
high

>  <Tumorigenic>
none

>  <Reproductive Effective>
low

>  <Irritant>
high

>  <Nasty Functions>
oxiran/aziridine

>  <Shape Index>
0.40741

>  <Molecular Flexibility>
0.12967

>  <Molecular Complexity>
1.0611

>  <Fragments>
1

>  <Non-H Atoms>
27

>  <Non-C/H Atoms>
6

>  <Metal-Atoms>
0

>  <Electronegative Atoms>
6

>  <Stereo Centers>
5

>  <Rotatable Bonds>
1

>  <Rings Closures>
6

>  <Small Rings>
7

>  <Aromatic Rings>
2

>  <Aromatic Atoms>
12

>  <sp3-Atoms>
11

>  <Symmetric atoms>
0

>  <Amides>
0

>  <Amines>
0

>  <Alkyl-Amines>
0

>  <Aromatic Amines>
0

>  <Aromatic Nitrogens>
0

>  <Basic Nitrogens>
0

>  <Acidic Oxygens>
0

>  <Stereo Configuration>
this enantiomer

> <Gold.Version>
5.8.1

> <Gold.Id.Protein>
ID_2|Prot_COX2_5IKQ_Alig|mol2

> <Gold.Goldscore.Fitness>
46.6996

> <Gold.Goldscore.Internal.Vdw>
-2.1996

> <Gold.Goldscore.Internal.Torsion>
-1.5087

> <Gold.Goldscore.External.Vdw>
33.0871

> <Gold.Goldscore.Internal.HBond>
0.0000

> <Gold.Goldscore.External.HBond>
1.9312

> <Gold.Goldscore.Internal.Correction>
-2.9819

> <Gold.Goldscore.Hbonds>
donor molecule, donor type, donor heavy atom, donor atom, acceptor molecule, acceptor atom, score
      P1  H  5703  5712       L1    27  0.39
      P1  H  8031  8036       L1    22  0.58

> <Gold.Goldscore.Internal.Vdw.Weighted>
-2.1996

> <Gold.Goldscore.Internal.Torsion.Weighted>
-1.5087

> <Gold.Goldscore.External.Vdw.Weighted>
45.4947

> <Gold.Goldscore.Internal.HBond.Weighted>
0.0000

> <Gold.Goldscore.External.HBond.Weighted>
1.9312

> <Gold.Goldscore.Internal.Correction.Weighted>
-2.9819

> <Gold.Protein.RotatedTorsions>
[ 5077 5068 5067 5065 ] final  154.26 input  179.94 | X-H torsion
[ 5157 5152 5151 5148 ] final  -40.55 input -179.92 | X-H torsion
[ 5185 5176 5175 5173 ] final  -83.92 input -179.99 | X-H torsion
[ 5712 5703 5702 5700 ] final  149.10 input  180.00 | X-H torsion
[ 8036 8031 8030 8027 ] final  173.69 input -179.94 | X-H torsion
[ 2749 2745 2743 2740 ] final   31.11 input  -60.05 | X-H torsion
[ 1366 1361 1360 1357 ] final  173.74 input  -60.09 | X-H torsion
[ 2556 2551 2550 2547 ] final   47.92 input   59.97 | X-H torsion

> <Gold.Protein.ActiveResidues>
 PRO86   VAL89   HIS90   LEU93   THR94   ILE112  MET113  TYR115  VAL116  LEU117 
 THR118  SER119  ARG120  SER121  LEU123  ILE124  GLN192  SER194  PHE198  PHE201 
 ALA202  GLN203  PHE205  THR206  PHE209  PHE210  VAL228  ILE341  ILE343  VAL344 
 ILE345  GLU346  ASP347  TYR348  VAL349  GLN350  HIS351  LEU352  SER353  GLY354 
 TYR355  PHE357  LEU359  LYS360  GLU380  PHE381  ASN382  THR383  LEU384  TYR385 
 HIS386  TRP387  LEU390  VAL434  LEU507  ARG513  ALA516  ILE517  PHE518  GLY519 
 GLU520  THR521  MET522  VAL523  GLU524  VAL525  GLY526  ALA527  PRO528  PHE529 
 SER530  LEU531  LYS532  GLY533  LEU534  MET535  COH609 

> <Gold.Protein.RotatedAtoms>
   18.8236    6.7127    2.8405 H   0  0  0  0  0  0  0  0  0  0  0  0  # atno 1366 bound_to 1361
    5.1850  -10.1493    7.5826 H   0  0  0  0  0  0  0  0  0  0  0  0  # atno 2556 bound_to 2551
   -4.1724    0.2815    0.5415 H   0  0  0  0  0  0  0  0  0  0  0  0  # atno 2749 bound_to 2745
    1.6398   -1.3831    3.6941 H   0  0  0  0  0  0  0  0  0  0  0  0  # atno 5077 bound_to 5068
   11.4727   -2.5269    9.2826 H   0  0  0  0  0  0  0  0  0  0  0  0  # atno 5157 bound_to 5152
   16.5900   -0.2398    5.0152 H   0  0  0  0  0  0  0  0  0  0  0  0  # atno 5185 bound_to 5176
    2.9852   -0.0246    2.3583 H   0  0  0  0  0  0  0  0  0  0  0  0  # atno 5712 bound_to 5703
    5.6971    3.7115    3.5239 H   0  0  0  0  0  0  0  0  0  0  0  0  # atno 8036 bound_to 8031
    0.5038   -2.2140    4.2237 LP  0  0  0  0  0  0  0  0  0  0  0  0  # atno 8267 bound_to 5068
    2.0169   -2.7984    4.0348 LP  0  0  0  0  0  0  0  0  0  0  0  0  # atno 8268 bound_to 5068
   12.1374   -1.1767    9.2867 LP  0  0  0  0  0  0  0  0  0  0  0  0  # atno 8279 bound_to 5152
   12.9746   -2.5759    9.1988 LP  0  0  0  0  0  0  0  0  0  0  0  0  # atno 8280 bound_to 5152
   15.2139    0.3617    4.9582 LP  0  0  0  0  0  0  0  0  0  0  0  0  # atno 8281 bound_to 5176
   15.5212   -1.1901    4.5533 LP  0  0  0  0  0  0  0  0  0  0  0  0  # atno 8282 bound_to 5176
    2.2179   -1.2410    2.7944 LP  0  0  0  0  0  0  0  0  0  0  0  0  # atno 8283 bound_to 5703
    1.5707    0.2581    2.7800 LP  0  0  0  0  0  0  0  0  0  0  0  0  # atno 8284 bound_to 5703
    4.6406    4.7298    3.1968 LP  0  0  0  0  0  0  0  0  0  0  0  0  # atno 8309 bound_to 8031
    6.1359    5.1370    3.7116 LP  0  0  0  0  0  0  0  0  0  0  0  0  # atno 8310 bound_to 8031
   -3.1909   -0.4525    1.4140 LP  0  0  0  0  0  0  0  0  0  0  0  0  # atno 8323 bound_to 2745
   -3.0230   -0.3376   -0.2062 LP  0  0  0  0  0  0  0  0  0  0  0  0  # atno 8324 bound_to 2745
   17.8085    7.1076    1.8024 LP  0  0  0  0  0  0  0  0  0  0  0  0  # atno 8335 bound_to 1361
   17.8717    7.7900    3.2847 LP  0  0  0  0  0  0  0  0  0  0  0  0  # atno 8336 bound_to 1361
    4.6799   -8.7999    8.0164 LP  0  0  0  0  0  0  0  0  0  0  0  0  # atno 8342 bound_to 2551
    4.6477   -9.3005    6.4624 LP  0  0  0  0  0  0  0  0  0  0  0  0  # atno 8343 bound_to 2551

