
167|LMW3_p|sdf|167|dock1
  -GOLD-   6 92219543D 1   1.00000     0.00000

 78 81  0  0  0  0  0  0  0  0  2 V2000
    6.0383   -2.1629    2.2615 O   0  0  0  0  0  0  0  0  0  0  0  0
    6.5725   -1.0529    2.2500 C   0  0  0  0  0  0  0  0  0  0  0  0
    7.4881   -0.5934    1.1113 C   0  0  0  0  0  0  0  0  0  0  0  0
    6.2540   -0.0486    3.3280 C   0  0  0  0  0  0  0  0  0  0  0  0
    8.7554    0.1469    1.7086 C   0  0  1  0  0  0  0  0  0  0  0  0
    6.6627    0.3056    0.1645 C   0  0  0  0  0  0  0  0  0  0  0  0
    7.8871   -1.8282    0.2644 C   0  0  0  0  0  0  0  0  0  0  0  0
    7.5223    0.5422    3.9169 C   0  0  0  0  0  0  0  0  0  0  0  0
    8.4804    1.1856    2.8768 C   0  0  1  0  0  0  0  0  0  0  0  0
    9.8263   -0.8573    2.1826 C   0  0  0  0  0  0  0  0  0  0  0  0
    9.7841    1.6113    3.6353 C   0  0  0  0  0  0  0  0  0  0  0  0
    7.8578    2.4760    2.2899 C   0  0  0  0  0  0  0  0  0  0  0  0
   11.1312   -0.1508    2.5080 C   0  0  0  0  0  0  0  0  0  0  0  0
   10.9890    1.0188    3.4549 C   0  0  0  0  0  0  0  0  0  0  0  0
    9.6436    2.7596    4.6166 C   0  0  0  0  0  0  0  0  0  0  0  0
   12.3076    1.4775    4.1437 C   0  0  1  0  0  0  0  0  0  0  0  0
   10.7119    2.7573    5.6965 C   0  0  0  0  0  0  0  0  0  0  0  0
   12.1561    2.7171    5.1235 C   0  0  1  0  0  0  0  0  0  0  0  0
   12.8845    0.3492    5.0522 C   0  0  0  0  0  0  0  0  0  0  0  0
   13.3348    1.7533    3.0113 C   0  0  0  0  0  0  0  0  0  0  0  0
   13.1256    2.4117    6.3354 C   0  0  1  0  0  0  0  0  0  0  0  0
   12.4103    4.0774    4.4416 C   0  0  0  0  0  0  0  0  0  0  0  0
   12.9838    0.8901    6.4694 C   0  0  0  0  0  0  0  0  0  0  0  0
   14.5943    2.9361    6.2303 C   0  0  1  0  0  0  0  0  0  0  0  0
   15.2059    2.9711    7.6214 C   0  0  0  0  0  0  0  0  0  0  0  0
   15.5161    2.0729    5.3398 C   0  0  0  0  0  0  0  0  0  0  0  0
   16.2217    2.4082    7.9926 O   0  0  0  0  0  0  0  0  0  0  0  0
   14.5108    3.7518    8.4723 O   0  5  0  0  0  0  0  0  0  0  0  0
   16.8876    2.7078    5.0688 C   0  0  0  0  0  0  0  0  0  0  0  0
   17.6489    1.9291    4.0310 C   0  0  0  0  0  0  0  0  0  0  0  0
   18.4346    2.4211    3.0534 C   0  0  0  0  0  0  0  0  0  0  0  0
   18.7416    3.8789    2.8455 C   0  0  0  0  0  0  0  0  0  0  0  0
   19.1032    1.4997    2.0669 C   0  0  0  0  0  0  0  0  0  0  0  0
    5.7009   -0.5336    4.1049 H   0  0  0  0  0  0  0  0  0  0  0  0
    5.6793    0.7436    2.8952 H   0  0  0  0  0  0  0  0  0  0  0  0
    9.1029    0.7249    0.8780 H   0  0  0  0  0  0  0  0  0  0  0  0
    6.3042   -0.2772   -0.6581 H   0  0  0  0  0  0  0  0  0  0  0  0
    7.2801    1.0987   -0.2025 H   0  0  0  0  0  0  0  0  0  0  0  0
    5.8320    0.7180    0.6983 H   0  0  0  0  0  0  0  0  0  0  0  0
    8.2812   -2.5885    0.9059 H   0  0  0  0  0  0  0  0  0  0  0  0
    8.6305   -1.5448   -0.4511 H   0  0  0  0  0  0  0  0  0  0  0  0
    7.0253   -2.2039   -0.2465 H   0  0  0  0  0  0  0  0  0  0  0  0
    8.0522   -0.2395    4.4198 H   0  0  0  0  0  0  0  0  0  0  0  0
    7.2138    1.3296    4.5724 H   0  0  0  0  0  0  0  0  0  0  0  0
   10.0007   -1.5743    1.4078 H   0  0  0  0  0  0  0  0  0  0  0  0
    9.4710   -1.3406    3.0687 H   0  0  0  0  0  0  0  0  0  0  0  0
    6.9906    2.2245    1.7156 H   0  0  0  0  0  0  0  0  0  0  0  0
    8.5732    2.9631    1.6607 H   0  0  0  0  0  0  0  0  0  0  0  0
    7.5791    3.1323    3.0876 H   0  0  0  0  0  0  0  0  0  0  0  0
   11.5542    0.2087    1.5932 H   0  0  0  0  0  0  0  0  0  0  0  0
   11.7525   -0.8690    3.0010 H   0  0  0  0  0  0  0  0  0  0  0  0
    8.6849    2.6902    5.0865 H   0  0  0  0  0  0  0  0  0  0  0  0
    9.7542    3.6677    4.0616 H   0  0  0  0  0  0  0  0  0  0  0  0
   10.5674    1.8976    6.3170 H   0  0  0  0  0  0  0  0  0  0  0  0
   10.6117    3.6693    6.2472 H   0  0  0  0  0  0  0  0  0  0  0  0
   13.8551    0.0635    4.7039 H   0  0  0  0  0  0  0  0  0  0  0  0
   12.2474   -0.5101    5.0266 H   0  0  0  0  0  0  0  0  0  0  0  0
   14.2358    2.1455    3.4347 H   0  0  0  0  0  0  0  0  0  0  0  0
   12.9254    2.4633    2.3234 H   0  0  0  0  0  0  0  0  0  0  0  0
   13.5508    0.8409    2.4957 H   0  0  0  0  0  0  0  0  0  0  0  0
   12.8499    2.9572    7.2136 H   0  0  0  0  0  0  0  0  0  0  0  0
   13.4075    4.1015    4.0545 H   0  0  0  0  0  0  0  0  0  0  0  0
   12.2862    4.8636    5.1568 H   0  0  0  0  0  0  0  0  0  0  0  0
   11.7135    4.2107    3.6407 H   0  0  0  0  0  0  0  0  0  0  0  0
   13.8390    0.4797    6.9645 H   0  0  0  0  0  0  0  0  0  0  0  0
   12.1236    0.6274    7.0491 H   0  0  0  0  0  0  0  0  0  0  0  0
   14.5284    3.9041    5.7790 H   0  0  0  0  0  0  0  0  0  0  0  0
   15.0267    1.9140    4.4017 H   0  0  0  0  0  0  0  0  0  0  0  0
   15.6943    1.1599    5.8685 H   0  0  0  0  0  0  0  0  0  0  0  0
   17.4517    2.7229    5.9780 H   0  0  0  0  0  0  0  0  0  0  0  0
   16.7358    3.7024    4.7042 H   0  0  0  0  0  0  0  0  0  0  0  0
   17.5591    0.9018    4.0725 H   0  0  0  0  0  0  0  0  0  0  0  0
   18.6824    4.3930    3.7821 H   0  0  0  0  0  0  0  0  0  0  0  0
   18.0327    4.2988    2.1628 H   0  0  0  0  0  0  0  0  0  0  0  0
   19.7279    3.9820    2.4437 H   0  0  0  0  0  0  0  0  0  0  0  0
   20.1567    1.4814    2.2534 H   0  0  0  0  0  0  0  0  0  0  0  0
   18.9231    1.8507    1.0723 H   0  0  0  0  0  0  0  0  0  0  0  0
   18.7048    0.5124    2.1744 H   0  0  0  0  0  0  0  0  0  0  0  0
  1  2  2  0  0  0  0
  2  3  1  0  0  0  0
  2  4  1  0  0  0  0
  3  5  1  0  0  0  0
  3  6  1  0  0  0  0
  3  7  1  0  0  0  0
  4  8  1  0  0  0  0
  4 34  1  0  0  0  0
  4 35  1  0  0  0  0
  5  9  1  0  0  0  0
  5 10  1  0  0  0  0
  5 36  1  0  0  0  0
  6 37  1  0  0  0  0
  6 38  1  0  0  0  0
  6 39  1  0  0  0  0
  7 40  1  0  0  0  0
  7 41  1  0  0  0  0
  7 42  1  0  0  0  0
  8  9  1  0  0  0  0
  8 43  1  0  0  0  0
  8 44  1  0  0  0  0
  9 11  1  0  0  0  0
  9 12  1  0  0  0  0
 10 13  1  0  0  0  0
 10 45  1  0  0  0  0
 10 46  1  0  0  0  0
 11 14  2  0  0  0  0
 11 15  1  0  0  0  0
 12 47  1  0  0  0  0
 12 48  1  0  0  0  0
 12 49  1  0  0  0  0
 13 14  1  0  0  0  0
 13 50  1  0  0  0  0
 13 51  1  0  0  0  0
 14 16  1  0  0  0  0
 15 17  1  0  0  0  0
 15 52  1  0  0  0  0
 15 53  1  0  0  0  0
 16 18  1  0  0  0  0
 16 19  1  0  0  0  0
 16 20  1  0  0  0  0
 17 18  1  0  0  0  0
 17 54  1  0  0  0  0
 17 55  1  0  0  0  0
 18 21  1  0  0  0  0
 18 22  1  0  0  0  0
 19 23  1  0  0  0  0
 19 56  1  0  0  0  0
 19 57  1  0  0  0  0
 20 58  1  0  0  0  0
 20 59  1  0  0  0  0
 20 60  1  0  0  0  0
 21 24  1  0  0  0  0
 21 23  1  0  0  0  0
 21 61  1  0  0  0  0
 22 62  1  0  0  0  0
 22 63  1  0  0  0  0
 22 64  1  0  0  0  0
 23 65  1  0  0  0  0
 23 66  1  0  0  0  0
 24 25  1  0  0  0  0
 24 26  1  0  0  0  0
 24 67  1  0  0  0  0
 25 27  2  0  0  0  0
 25 28  1  0  0  0  0
 26 29  1  0  0  0  0
 26 68  1  0  0  0  0
 26 69  1  0  0  0  0
 29 30  1  0  0  0  0
 29 70  1  0  0  0  0
 29 71  1  0  0  0  0
 30 31  2  0  0  0  0
 30 72  1  0  0  0  0
 31 32  1  0  0  0  0
 31 33  1  0  0  0  0
 32 73  1  0  0  0  0
 32 74  1  0  0  0  0
 32 75  1  0  0  0  0
 33 76  1  0  0  0  0
 33 77  1  0  0  0  0
 33 78  1  0  0  0  0
M  CHG  1  28  -1
M  END
>  <Code-name>
167

>  <Compound>
3-Oxo-24-methyl-5Î±-lanost-8,25-dien-21-oic acid

>  <Specie>
Fomitopsis pinicola

>  <Reference>
Mehreen Zeb and Chow H. Lee, 2038

>  <Organism>
N/A

>  <Smiles>
C[C@@](CC1)([C@@](C)(CC2)[C@@H]1[C@H](CCC=C(C)C)C(O)=O)C(CC1)=C2[C@](C)(CC2)[C@@H]1C(C)(C)C2=O

>  <MMFF94 Energy>
91.191

>  <Total Molweight>
454.692

>  <Molweight>
454.692

>  <Monoisotopic Mass>
454.344695

>  <cLogP>
7.289

>  <cLogS>
-5.979

>  <H-Acceptors>
3

>  <H-Donors>
1

>  <Total Surface Area>
351.54

>  <Relative PSA>
0.11145

>  <Polar Surface Area>
54.37

>  <Druglikeness>
-5.2076

>  <Mutagenic>
none

>  <Tumorigenic>
none

>  <Reproductive Effective>
high

>  <Irritant>
none

>  <Nasty Functions>


>  <Shape Index>
0.48485

>  <Molecular Flexibility>
0.31138

>  <Molecular Complexity>
1.0006

>  <Fragments>
1

>  <Non-H Atoms>
33

>  <Non-C/H Atoms>
3

>  <Metal-Atoms>
0

>  <Electronegative Atoms>
3

>  <Stereo Centers>
6

>  <Rotatable Bonds>
5

>  <Rings Closures>
4

>  <Small Rings>
4

>  <Aromatic Rings>
0

>  <Aromatic Atoms>
0

>  <sp3-Atoms>
25

>  <Symmetric atoms>
2

>  <Amides>
0

>  <Amines>
0

>  <Alkyl-Amines>
0

>  <Aromatic Amines>
0

>  <Aromatic Nitrogens>
0

>  <Basic Nitrogens>
0

>  <Acidic Oxygens>
1

>  <Stereo Configuration>
this enantiomer

> <Gold.Version>
5.8.1

> <Gold.Id.Protein>
ID_2|Prot_COX2_5IKQ_Alig|mol2

> <Gold.Goldscore.Fitness>
-48.1545

> <Gold.Goldscore.Internal.Vdw>
-62.0437

> <Gold.Goldscore.Internal.Torsion>
-6.3636

> <Gold.Goldscore.External.Vdw>
-12.3389

> <Gold.Goldscore.Internal.HBond>
0.0000

> <Gold.Goldscore.External.HBond>
0.0000

> <Gold.Goldscore.Internal.Correction>
-37.2189

> <Gold.Goldscore.Internal.Vdw.Weighted>
-62.0437

> <Gold.Goldscore.Internal.Torsion.Weighted>
-6.3636

> <Gold.Goldscore.External.Vdw.Weighted>
-16.9661

> <Gold.Goldscore.Internal.HBond.Weighted>
0.0000

> <Gold.Goldscore.External.HBond.Weighted>
0.0000

> <Gold.Goldscore.Internal.Correction.Weighted>
-37.2189

> <Gold.Protein.RotatedTorsions>
[ 5077 5068 5067 5065 ] final -167.95 input  179.94 | X-H torsion
[ 5157 5152 5151 5148 ] final  161.79 input -179.92 | X-H torsion
[ 5185 5176 5175 5173 ] final  -50.81 input -179.99 | X-H torsion
[ 5712 5703 5702 5700 ] final -173.05 input  180.00 | X-H torsion
[ 8036 8031 8030 8027 ] final  -89.16 input -179.94 | X-H torsion
[ 2749 2745 2743 2740 ] final  137.72 input  -60.05 | X-H torsion
[ 1366 1361 1360 1357 ] final -153.24 input  -60.09 | X-H torsion
[ 2556 2551 2550 2547 ] final  -19.74 input   59.97 | X-H torsion

> <Gold.Protein.ActiveResidues>
 PRO86   VAL89   HIS90   LEU93   THR94   ILE112  MET113  TYR115  VAL116  LEU117 
 THR118  SER119  ARG120  SER121  LEU123  ILE124  GLN192  SER194  PHE198  PHE201 
 ALA202  GLN203  PHE205  THR206  PHE209  PHE210  VAL228  ILE341  ILE343  VAL344 
 ILE345  GLU346  ASP347  TYR348  VAL349  GLN350  HIS351  LEU352  SER353  GLY354 
 TYR355  PHE357  LEU359  LYS360  GLU380  PHE381  ASN382  THR383  LEU384  TYR385 
 HIS386  TRP387  LEU390  VAL434  LEU507  ARG513  ALA516  ILE517  PHE518  GLY519 
 GLU520  THR521  MET522  VAL523  GLU524  VAL525  GLY526  ALA527  PRO528  PHE529 
 SER530  LEU531  LYS532  GLY533  LEU534  MET535  COH609 

> <Gold.Protein.RotatedAtoms>
   18.7438    6.9701    3.1999 H   0  0  0  0  0  0  0  0  0  0  0  0  # atno 1366 bound_to 1361
    4.9817   -9.5061    8.1478 H   0  0  0  0  0  0  0  0  0  0  0  0  # atno 2556 bound_to 2551
   -3.2204   -0.1795   -0.1554 H   0  0  0  0  0  0  0  0  0  0  0  0  # atno 2749 bound_to 2745
    2.0397   -1.7017    3.7008 H   0  0  0  0  0  0  0  0  0  0  0  0  # atno 5077 bound_to 5068
   12.6191   -1.4850    9.1977 H   0  0  0  0  0  0  0  0  0  0  0  0  # atno 5157 bound_to 5152
   16.5463   -0.6678    4.8864 H   0  0  0  0  0  0  0  0  0  0  0  0  # atno 5185 bound_to 5176
    2.6485    0.3572    2.4048 H   0  0  0  0  0  0  0  0  0  0  0  0  # atno 5712 bound_to 5703
    6.2064    4.7652    3.6924 H   0  0  0  0  0  0  0  0  0  0  0  0  # atno 8036 bound_to 8031
    0.5693   -1.6450    4.0106 LP  0  0  0  0  0  0  0  0  0  0  0  0  # atno 8267 bound_to 5068
    1.4727   -2.9859    4.2399 LP  0  0  0  0  0  0  0  0  0  0  0  0  # atno 8268 bound_to 5068
   12.5229   -2.9865    9.2322 LP  0  0  0  0  0  0  0  0  0  0  0  0  # atno 8279 bound_to 5152
   11.2182   -2.0122    9.3547 LP  0  0  0  0  0  0  0  0  0  0  0  0  # atno 8280 bound_to 5152
   15.6994    0.5586    5.0798 LP  0  0  0  0  0  0  0  0  0  0  0  0  # atno 8281 bound_to 5176
   15.0881   -0.8731    4.5864 LP  0  0  0  0  0  0  0  0  0  0  0  0  # atno 8282 bound_to 5176
    2.7903   -1.1247    2.6114 LP  0  0  0  0  0  0  0  0  0  0  0  0  # atno 8283 bound_to 5703
    1.4025   -0.3164    2.9071 LP  0  0  0  0  0  0  0  0  0  0  0  0  # atno 8284 bound_to 5703
    5.3649    3.5421    3.4565 LP  0  0  0  0  0  0  0  0  0  0  0  0  # atno 8309 bound_to 8031
    4.8005    5.0604    3.2497 LP  0  0  0  0  0  0  0  0  0  0  0  0  # atno 8310 bound_to 8031
   -4.3265    0.2936    0.7480 LP  0  0  0  0  0  0  0  0  0  0  0  0  # atno 8323 bound_to 2745
   -3.0276   -0.5315    1.2945 LP  0  0  0  0  0  0  0  0  0  0  0  0  # atno 8324 bound_to 2745
   18.1974    6.7387    1.8172 LP  0  0  0  0  0  0  0  0  0  0  0  0  # atno 8335 bound_to 1361
   17.5782    7.8509    2.8400 LP  0  0  0  0  0  0  0  0  0  0  0  0  # atno 8336 bound_to 1361
    4.4560   -8.6939    6.9954 LP  0  0  0  0  0  0  0  0  0  0  0  0  # atno 8342 bound_to 2551
    5.1148  -10.1761    6.8071 LP  0  0  0  0  0  0  0  0  0  0  0  0  # atno 8343 bound_to 2551

