
016|LMW3_p|sdf|16|dock2
  -GOLD-   6 722 3503D 1   1.00000     0.00000

 82 84  0  0  0  0  0  0  0  0  2 V2000
   14.0727   -1.0506    4.3239 O   0  0  0  0  0  0  0  0  0  0  0  0
   13.6529   -0.1178    4.9884 C   0  0  0  0  0  0  0  0  0  0  0  0
   13.2562   -0.3081    6.2609 O   0  5  0  0  0  0  0  0  0  0  0  0
   13.4971    1.3179    4.5360 C   0  0  1  0  0  0  0  0  0  0  0  0
   11.9951    1.6978    4.4871 C   0  0  2  0  0  0  0  0  0  0  0  0
   14.2882    2.2199    5.5094 C   0  0  0  0  0  0  0  0  0  0  0  0
   11.0569    0.9036    3.5291 C   0  0  2  0  0  0  0  0  0  0  0  0
   11.7616    3.1698    4.0441 C   0  0  0  0  0  0  0  0  0  0  0  0
   15.7116    2.5204    5.0179 C   0  0  0  0  0  0  0  0  0  0  0  0
    9.7921    1.8338    3.4815 C   0  0  1  0  0  0  0  0  0  0  0  0
   10.6119   -0.4905    4.0042 C   0  0  0  0  0  0  0  0  0  0  0  0
   11.7440    0.7374    2.1336 C   0  0  0  0  0  0  0  0  0  0  0  0
   10.4532    3.2044    3.2301 C   0  0  0  0  0  0  0  0  0  0  0  0
   16.6343    2.8808    6.1872 C   0  0  0  0  0  0  0  0  0  0  0  0
    8.8058    1.2786    2.4558 C   0  0  0  0  0  0  0  0  0  0  0  0
    9.0064    1.9603    4.8239 C   0  0  0  0  0  0  0  0  0  0  0  0
    9.3673   -0.9594    3.2796 C   0  0  0  0  0  0  0  0  0  0  0  0
   18.1276    2.8865    5.8110 C   0  0  0  0  0  0  0  0  0  0  0  0
    8.5367   -0.1758    2.5505 C   0  0  0  0  0  0  0  0  0  0  0  0
    8.2109    2.0438    1.5250 C   0  0  0  0  0  0  0  0  0  0  0  0
   18.9679    3.2775    7.0292 C   0  0  0  0  0  0  0  0  0  0  0  0
   18.4341    3.8318    4.6484 C   0  0  0  0  0  0  0  0  0  0  0  0
    7.2810   -0.7032    1.7956 C   0  0  2  0  0  0  0  0  0  0  0  0
    7.2728    1.5279    0.4781 C   0  0  0  0  0  0  0  0  0  0  0  0
    7.2751   -0.0136    0.3679 C   0  0  2  0  0  0  0  0  0  0  0  0
    5.9887   -0.3573    2.6072 C   0  0  0  0  0  0  0  0  0  0  0  0
    7.3262   -2.2413    1.5842 C   0  0  0  0  0  0  0  0  0  0  0  0
    6.2227   -0.4972   -0.6409 C   0  0  0  0  0  0  0  0  0  0  0  0
    6.0847    0.8666    3.5283 C   0  0  0  0  0  0  0  0  0  0  0  0
    4.9731   -0.0082   -0.7251 C   0  0  0  0  0  0  0  0  0  0  0  0
    6.6875   -1.5521   -1.6134 C   0  0  0  0  0  0  0  0  0  0  0  0
    4.7220    1.2917    4.0270 C   0  0  0  0  0  0  0  0  0  0  0  0
    4.4056    1.4408    5.1987 O   0  0  0  0  0  0  0  0  0  0  0  0
    3.8948    1.4965    2.9614 O   0  0  0  0  0  0  0  0  0  0  0  0
    2.6948    2.1991    3.2858 C   0  0  0  0  0  0  0  0  0  0  0  0
   13.8866    1.4498    3.5482 H   0  0  0  0  0  0  0  0  0  0  0  0
   11.7416    1.4733    5.5021 H   0  0  0  0  0  0  0  0  0  0  0  0
   14.3506    1.7277    6.4575 H   0  0  0  0  0  0  0  0  0  0  0  0
   13.7680    3.1522    5.5799 H   0  0  0  0  0  0  0  0  0  0  0  0
   12.5781    3.5032    3.4382 H   0  0  0  0  0  0  0  0  0  0  0  0
   11.6939    3.8143    4.8955 H   0  0  0  0  0  0  0  0  0  0  0  0
   15.6787    3.3417    4.3328 H   0  0  0  0  0  0  0  0  0  0  0  0
   16.0974    1.6454    4.5378 H   0  0  0  0  0  0  0  0  0  0  0  0
   10.4075   -0.4500    5.0537 H   0  0  0  0  0  0  0  0  0  0  0  0
   11.4007   -1.1819    3.7931 H   0  0  0  0  0  0  0  0  0  0  0  0
   12.3968    1.5666    1.9565 H   0  0  0  0  0  0  0  0  0  0  0  0
   10.9958    0.7031    1.3695 H   0  0  0  0  0  0  0  0  0  0  0  0
   12.3095   -0.1709    2.1203 H   0  0  0  0  0  0  0  0  0  0  0  0
   10.6611    3.3366    2.1889 H   0  0  0  0  0  0  0  0  0  0  0  0
    9.8196    4.0162    3.5208 H   0  0  0  0  0  0  0  0  0  0  0  0
   16.4847    2.1664    6.9696 H   0  0  0  0  0  0  0  0  0  0  0  0
   16.3824    3.8749    6.4926 H   0  0  0  0  0  0  0  0  0  0  0  0
    8.7330    0.9856    5.1704 H   0  0  0  0  0  0  0  0  0  0  0  0
    8.1234    2.5437    4.6668 H   0  0  0  0  0  0  0  0  0  0  0  0
    9.6243    2.4384    5.5550 H   0  0  0  0  0  0  0  0  0  0  0  0
    9.1317   -1.9618    3.3470 H   0  0  0  0  0  0  0  0  0  0  0  0
   18.3784    1.8964    5.4922 H   0  0  0  0  0  0  0  0  0  0  0  0
    8.4144    3.0555    1.5321 H   0  0  0  0  0  0  0  0  0  0  0  0
   18.5564    2.8241    7.9067 H   0  0  0  0  0  0  0  0  0  0  0  0
   18.9609    4.3416    7.1408 H   0  0  0  0  0  0  0  0  0  0  0  0
   19.9740    2.9400    6.8918 H   0  0  0  0  0  0  0  0  0  0  0  0
   19.4915    3.8699    4.4890 H   0  0  0  0  0  0  0  0  0  0  0  0
   18.0728    4.8118    4.8808 H   0  0  0  0  0  0  0  0  0  0  0  0
   17.9525    3.4750    3.7621 H   0  0  0  0  0  0  0  0  0  0  0  0
    7.5600    1.9372   -0.4680 H   0  0  0  0  0  0  0  0  0  0  0  0
    6.2847    1.8260    0.7605 H   0  0  0  0  0  0  0  0  0  0  0  0
    8.1979   -0.3483   -0.0577 H   0  0  0  0  0  0  0  0  0  0  0  0
    5.7448   -1.2051    3.2126 H   0  0  0  0  0  0  0  0  0  0  0  0
    5.2445   -0.1140    1.8780 H   0  0  0  0  0  0  0  0  0  0  0  0
    7.4109   -2.7294    2.5327 H   0  0  0  0  0  0  0  0  0  0  0  0
    8.1704   -2.4932    0.9769 H   0  0  0  0  0  0  0  0  0  0  0  0
    6.4286   -2.5609    1.0975 H   0  0  0  0  0  0  0  0  0  0  0  0
    6.5249    1.6768    2.9854 H   0  0  0  0  0  0  0  0  0  0  0  0
    6.6855    0.6046    4.3740 H   0  0  0  0  0  0  0  0  0  0  0  0
    4.6555    0.7136   -0.0594 H   0  0  0  0  0  0  0  0  0  0  0  0
    4.3315   -0.3547   -1.4555 H   0  0  0  0  0  0  0  0  0  0  0  0
    7.3443   -2.2332   -1.1139 H   0  0  0  0  0  0  0  0  0  0  0  0
    7.2070   -1.0856   -2.4242 H   0  0  0  0  0  0  0  0  0  0  0  0
    5.8410   -2.0858   -1.9922 H   0  0  0  0  0  0  0  0  0  0  0  0
    2.9414    3.1569    3.6940 H   0  0  0  0  0  0  0  0  0  0  0  0
    2.1362    1.6377    4.0053 H   0  0  0  0  0  0  0  0  0  0  0  0
    2.1075    2.3292    2.4009 H   0  0  0  0  0  0  0  0  0  0  0  0
  1  2  2  0  0  0  0
  2  3  1  0  0  0  0
  2  4  1  0  0  0  0
  4  5  1  0  0  0  0
  4  6  1  0  0  0  0
  4 36  1  0  0  0  0
  5  7  1  0  0  0  0
  5  8  1  0  0  0  0
  5 37  1  0  0  0  0
  6  9  1  0  0  0  0
  6 38  1  0  0  0  0
  6 39  1  0  0  0  0
  7 10  1  0  0  0  0
  7 11  1  0  0  0  0
  7 12  1  0  0  0  0
  8 13  1  0  0  0  0
  8 40  1  0  0  0  0
  8 41  1  0  0  0  0
  9 14  1  0  0  0  0
  9 42  1  0  0  0  0
  9 43  1  0  0  0  0
 10 15  1  0  0  0  0
 10 16  1  0  0  0  0
 10 13  1  0  0  0  0
 11 17  1  0  0  0  0
 11 44  1  0  0  0  0
 11 45  1  0  0  0  0
 12 46  1  0  0  0  0
 12 47  1  0  0  0  0
 12 48  1  0  0  0  0
 13 49  1  0  0  0  0
 13 50  1  0  0  0  0
 14 18  1  0  0  0  0
 14 51  1  0  0  0  0
 14 52  1  0  0  0  0
 15 19  1  0  0  0  0
 15 20  2  0  0  0  0
 16 53  1  0  0  0  0
 16 54  1  0  0  0  0
 16 55  1  0  0  0  0
 17 19  2  0  0  0  0
 17 56  1  0  0  0  0
 18 21  1  0  0  0  0
 18 22  1  0  0  0  0
 18 57  1  0  0  0  0
 19 23  1  0  0  0  0
 20 24  1  0  0  0  0
 20 58  1  0  0  0  0
 21 59  1  0  0  0  0
 21 60  1  0  0  0  0
 21 61  1  0  0  0  0
 22 62  1  0  0  0  0
 22 63  1  0  0  0  0
 22 64  1  0  0  0  0
 23 25  1  0  0  0  0
 23 26  1  0  0  0  0
 23 27  1  0  0  0  0
 24 25  1  0  0  0  0
 24 65  1  0  0  0  0
 24 66  1  0  0  0  0
 25 28  1  0  0  0  0
 25 67  1  0  0  0  0
 26 29  1  0  0  0  0
 26 68  1  0  0  0  0
 26 69  1  0  0  0  0
 27 70  1  0  0  0  0
 27 71  1  0  0  0  0
 27 72  1  0  0  0  0
 28 30  2  0  0  0  0
 28 31  1  0  0  0  0
 29 32  1  0  0  0  0
 29 73  1  0  0  0  0
 29 74  1  0  0  0  0
 30 75  1  0  0  0  0
 30 76  1  0  0  0  0
 31 77  1  0  0  0  0
 31 78  1  0  0  0  0
 31 79  1  0  0  0  0
 32 33  2  0  0  0  0
 32 34  1  0  0  0  0
 34 35  1  0  0  0  0
 35 80  1  0  0  0  0
 35 81  1  0  0  0  0
 35 82  1  0  0  0  0
M  CHG  1   3  -1
M  END
>  <Code-name>
016

>  <Compound>
3,4-seco-5Î²-lanosta-7,9(11),4(29)-trien-3,21-dioic acid-3-methyl ester

>  <Specie>
Ganoderma tsugae

>  <Reference>
LIN et al., 2018

>  <Organism>
Antitumoral Activity

>  <Smiles>
CC(C)CCC[C@H]([C@@H](CC1)[C@@](C)(CC=C2[C@@]3(C)CCC(OC)=O)[C@]1(C)C2=CC[C@@H]3C(C)=C)C(O)=O

>  <MMFF94 Energy>
64.845

>  <Total Molweight>
484.718

>  <Molweight>
484.718

>  <Monoisotopic Mass>
484.355260

>  <cLogP>
7.5302

>  <cLogS>
-5.876

>  <H-Acceptors>
4

>  <H-Donors>
1

>  <Total Surface Area>
387.91

>  <Relative PSA>
0.12678

>  <Polar Surface Area>
63.6

>  <Druglikeness>
-29.675

>  <Mutagenic>
none

>  <Tumorigenic>
none

>  <Reproductive Effective>
none

>  <Irritant>
none

>  <Nasty Functions>


>  <Shape Index>
0.48571

>  <Molecular Flexibility>
0.43165

>  <Molecular Complexity>
0.99609

>  <Fragments>
1

>  <Non-H Atoms>
35

>  <Non-C/H Atoms>
4

>  <Metal-Atoms>
0

>  <Electronegative Atoms>
4

>  <Stereo Centers>
6

>  <Rotatable Bonds>
11

>  <Rings Closures>
3

>  <Small Rings>
3

>  <Aromatic Rings>
0

>  <Aromatic Atoms>
0

>  <sp3-Atoms>
25

>  <Symmetric atoms>
1

>  <Amides>
0

>  <Amines>
0

>  <Alkyl-Amines>
0

>  <Aromatic Amines>
0

>  <Aromatic Nitrogens>
0

>  <Basic Nitrogens>
0

>  <Acidic Oxygens>
1

>  <Stereo Configuration>
this enantiomer

> <Gold.Version>
5.8.1

> <Gold.Id.Protein>
ID_2|Prot_COX2_5IKQ_Alig|mol2

> <Gold.Goldscore.Fitness>
-81.0562

> <Gold.Goldscore.Internal.Vdw>
-29.3760

> <Gold.Goldscore.Internal.Torsion>
-11.4890

> <Gold.Goldscore.External.Vdw>
-44.9502

> <Gold.Goldscore.Internal.HBond>
0.0000

> <Gold.Goldscore.External.HBond>
0.0000

> <Gold.Goldscore.Internal.Correction>
-21.6153

> <Gold.Goldscore.Internal.Vdw.Weighted>
-29.3760

> <Gold.Goldscore.Internal.Torsion.Weighted>
-11.4890

> <Gold.Goldscore.External.Vdw.Weighted>
-61.8065

> <Gold.Goldscore.Internal.HBond.Weighted>
0.0000

> <Gold.Goldscore.External.HBond.Weighted>
0.0000

> <Gold.Goldscore.Internal.Correction.Weighted>
-21.6153

> <Gold.Protein.RotatedTorsions>
[ 5077 5068 5067 5065 ] final  165.67 input  179.94 | X-H torsion
[ 5157 5152 5151 5148 ] final -160.20 input -179.92 | X-H torsion
[ 5185 5176 5175 5173 ] final  -63.27 input -179.99 | X-H torsion
[ 5712 5703 5702 5700 ] final   78.67 input  180.00 | X-H torsion
[ 8036 8031 8030 8027 ] final -166.99 input -179.94 | X-H torsion
[ 2749 2745 2743 2740 ] final  -25.78 input  -60.05 | X-H torsion
[ 1366 1361 1360 1357 ] final -170.57 input  -60.09 | X-H torsion
[ 2556 2551 2550 2547 ] final -161.34 input   59.97 | X-H torsion

> <Gold.Protein.ActiveResidues>
 PRO86   VAL89   HIS90   LEU93   THR94   ILE112  MET113  TYR115  VAL116  LEU117 
 THR118  SER119  ARG120  SER121  LEU123  ILE124  GLN192  SER194  PHE198  PHE201 
 ALA202  GLN203  PHE205  THR206  PHE209  PHE210  VAL228  ILE341  ILE343  VAL344 
 ILE345  GLU346  ASP347  TYR348  VAL349  GLN350  HIS351  LEU352  SER353  GLY354 
 TYR355  PHE357  LEU359  LYS360  GLU380  PHE381  ASN382  THR383  LEU384  TYR385 
 HIS386  TRP387  LEU390  VAL434  LEU507  ARG513  ALA516  ILE517  PHE518  GLY519 
 GLU520  THR521  MET522  VAL523  GLU524  VAL525  GLY526  ALA527  PRO528  PHE529 
 SER530  LEU531  LYS532  GLY533  LEU534  MET535  COH609 

> <Gold.Protein.RotatedAtoms>
   18.8096    6.8199    3.0272 H   0  0  0  0  0  0  0  0  0  0  0  0  # atno 1366 bound_to 1361
    4.5200   -9.0019    6.8208 H   0  0  0  0  0  0  0  0  0  0  0  0  # atno 2556 bound_to 2551
   -3.9320    0.0536    1.2170 H   0  0  0  0  0  0  0  0  0  0  0  0  # atno 2749 bound_to 2745
    1.7800   -1.4527    3.6819 H   0  0  0  0  0  0  0  0  0  0  0  0  # atno 5077 bound_to 5068
   12.1302   -1.3291    9.2411 H   0  0  0  0  0  0  0  0  0  0  0  0  # atno 5157 bound_to 5152
   16.5930   -0.5114    4.9376 H   0  0  0  0  0  0  0  0  0  0  0  0  # atno 5185 bound_to 5176
    2.8210   -0.9027    2.5255 H   0  0  0  0  0  0  0  0  0  0  0  0  # atno 5712 bound_to 5703
    5.9256    3.8195    3.6022 H   0  0  0  0  0  0  0  0  0  0  0  0  # atno 8036 bound_to 8031
    0.4821   -2.0362    4.1680 LP  0  0  0  0  0  0  0  0  0  0  0  0  # atno 8267 bound_to 5068
    1.8709   -2.8928    4.1050 LP  0  0  0  0  0  0  0  0  0  0  0  0  # atno 8268 bound_to 5068
   12.9762   -2.5730    9.1987 LP  0  0  0  0  0  0  0  0  0  0  0  0  # atno 8279 bound_to 5152
   11.3495   -2.6122    9.3363 LP  0  0  0  0  0  0  0  0  0  0  0  0  # atno 8280 bound_to 5152
   15.5024    0.5174    5.0416 LP  0  0  0  0  0  0  0  0  0  0  0  0  # atno 8281 bound_to 5176
   15.2291   -1.0198    4.5631 LP  0  0  0  0  0  0  0  0  0  0  0  0  # atno 8282 bound_to 5176
    1.4281   -0.5039    2.9251 LP  0  0  0  0  0  0  0  0  0  0  0  0  # atno 8283 bound_to 5703
    2.5577    0.5749    2.4486 LP  0  0  0  0  0  0  0  0  0  0  0  0  # atno 8284 bound_to 5703
    4.6087    4.4148    3.1881 LP  0  0  0  0  0  0  0  0  0  0  0  0  # atno 8309 bound_to 8031
    5.8936    5.3223    3.6263 LP  0  0  0  0  0  0  0  0  0  0  0  0  # atno 8310 bound_to 8031
   -2.7082   -0.6361    0.6785 LP  0  0  0  0  0  0  0  0  0  0  0  0  # atno 8323 bound_to 2745
   -3.7937    0.1191   -0.2796 LP  0  0  0  0  0  0  0  0  0  0  0  0  # atno 8324 bound_to 2745
   17.9848    6.9222    1.7729 LP  0  0  0  0  0  0  0  0  0  0  0  0  # atno 8335 bound_to 1361
   17.7120    7.8472    3.0908 LP  0  0  0  0  0  0  0  0  0  0  0  0  # atno 8336 bound_to 1361
    5.2249  -10.2964    7.1235 LP  0  0  0  0  0  0  0  0  0  0  0  0  # atno 8342 bound_to 2551
    4.8984   -9.1769    8.2666 LP  0  0  0  0  0  0  0  0  0  0  0  0  # atno 8343 bound_to 2551

