
169|LMW3_p|sdf|169|dock2
  -GOLD-   6 92219583D 1   1.00000     0.00000

 80 83  0  0  0  0  0  0  0  0  2 V2000
    5.1539   -1.4517    2.8300 O   0  0  0  0  0  0  0  0  0  0  0  0
    6.2052   -0.9428    2.4372 C   0  0  0  0  0  0  0  0  0  0  0  0
    6.4668    0.5682    2.5123 C   0  0  0  0  0  0  0  0  0  0  0  0
    7.2404   -1.7965    1.7522 C   0  0  0  0  0  0  0  0  0  0  0  0
    7.9547    0.8163    2.9398 C   0  0  1  0  0  0  0  0  0  0  0  0
    5.5210    1.1551    3.5925 C   0  0  0  0  0  0  0  0  0  0  0  0
    6.0519    1.1913    1.1712 C   0  0  0  0  0  0  0  0  0  0  0  0
    8.6259   -1.5365    2.3204 C   0  0  0  0  0  0  0  0  0  0  0  0
    9.0671   -0.0492    2.2424 C   0  0  2  0  0  0  0  0  0  0  0  0
    8.3533    2.3059    2.9381 C   0  0  0  0  0  0  0  0  0  0  0  0
   10.4265    0.1907    2.9666 C   0  0  0  0  0  0  0  0  0  0  0  0
    9.3256    0.3255    0.7624 C   0  0  0  0  0  0  0  0  0  0  0  0
    9.7256    2.4966    3.5045 C   0  0  0  0  0  0  0  0  0  0  0  0
   10.6505    1.5237    3.5771 C   0  0  0  0  0  0  0  0  0  0  0  0
   11.4164   -0.7351    2.9918 C   0  0  0  0  0  0  0  0  0  0  0  0
   11.9610    1.6980    4.3453 C   0  0  1  0  0  0  0  0  0  0  0  0
   12.8235   -0.5006    3.4996 C   0  0  0  0  0  0  0  0  0  0  0  0
   13.1367    1.0038    3.5729 C   0  0  2  0  0  0  0  0  0  0  0  0
   12.5314    3.1188    4.5521 C   0  0  0  0  0  0  0  0  0  0  0  0
   11.6714    1.1130    5.7663 C   0  0  0  0  0  0  0  0  0  0  0  0
   14.3693    1.4251    4.4321 C   0  0  2  0  0  0  0  0  0  0  0  0
   13.3055    1.5394    2.1115 C   0  0  0  0  0  0  0  0  0  0  0  0
   14.0512    2.9175    4.7362 C   0  0  2  0  0  0  0  0  0  0  0  0
   15.7830    1.2263    3.8182 C   0  0  2  0  0  0  0  0  0  0  0  0
   14.4529    3.2711    6.0516 O   0  0  0  0  0  0  0  0  0  0  0  0
   15.8666   -0.0862    3.0716 C   0  0  0  0  0  0  0  0  0  0  0  0
   16.9087    1.2808    4.8751 C   0  0  0  0  0  0  0  0  0  0  0  0
   15.5921   -1.1836    3.5288 O   0  0  0  0  0  0  0  0  0  0  0  0
   16.2745    0.0369    1.7955 O   0  5  0  0  0  0  0  0  0  0  0  0
   17.9710    2.3466    4.5579 C   0  0  0  0  0  0  0  0  0  0  0  0
   18.5522    2.1906    3.1672 C   0  0  0  0  0  0  0  0  0  0  0  0
   19.0227    0.9971    2.7620 C   0  0  0  0  0  0  0  0  0  0  0  0
   18.5587    3.3890    2.2270 C   0  0  0  0  0  0  0  0  0  0  0  0
   19.6808    4.3712    2.5741 C   0  0  0  0  0  0  0  0  0  0  0  0
   18.6304    2.9849    0.7533 C   0  0  0  0  0  0  0  0  0  0  0  0
    7.2434   -1.5706    0.7063 H   0  0  0  0  0  0  0  0  0  0  0  0
    6.9941   -2.8252    1.9136 H   0  0  0  0  0  0  0  0  0  0  0  0
    7.9310    0.4549    3.9466 H   0  0  0  0  0  0  0  0  0  0  0  0
    5.7843    0.7585    4.5507 H   0  0  0  0  0  0  0  0  0  0  0  0
    4.5099    0.8910    3.3628 H   0  0  0  0  0  0  0  0  0  0  0  0
    5.6164    2.2207    3.6090 H   0  0  0  0  0  0  0  0  0  0  0  0
    6.5036    0.6455    0.3694 H   0  0  0  0  0  0  0  0  0  0  0  0
    6.3759    2.2104    1.1360 H   0  0  0  0  0  0  0  0  0  0  0  0
    4.9871    1.1520    1.0739 H   0  0  0  0  0  0  0  0  0  0  0  0
    9.3311   -2.1266    1.7732 H   0  0  0  0  0  0  0  0  0  0  0  0
    8.5910   -1.7969    3.3576 H   0  0  0  0  0  0  0  0  0  0  0  0
    7.6515    2.8561    3.5294 H   0  0  0  0  0  0  0  0  0  0  0  0
    8.3505    2.6575    1.9275 H   0  0  0  0  0  0  0  0  0  0  0  0
    8.7378    1.1812    0.5033 H   0  0  0  0  0  0  0  0  0  0  0  0
    9.0548   -0.4970    0.1338 H   0  0  0  0  0  0  0  0  0  0  0  0
   10.3628    0.5511    0.6276 H   0  0  0  0  0  0  0  0  0  0  0  0
    9.9772    3.4319    3.8609 H   0  0  0  0  0  0  0  0  0  0  0  0
   11.1925   -1.6774    2.6356 H   0  0  0  0  0  0  0  0  0  0  0  0
   13.5185   -0.9713    2.8360 H   0  0  0  0  0  0  0  0  0  0  0  0
   12.9060   -0.9154    4.4825 H   0  0  0  0  0  0  0  0  0  0  0  0
   12.1042    3.5725    5.4219 H   0  0  0  0  0  0  0  0  0  0  0  0
   12.3086    3.7647    3.7286 H   0  0  0  0  0  0  0  0  0  0  0  0
   11.0097    1.7680    6.2936 H   0  0  0  0  0  0  0  0  0  0  0  0
   12.5894    1.0215    6.3082 H   0  0  0  0  0  0  0  0  0  0  0  0
   11.2168    0.1492    5.6694 H   0  0  0  0  0  0  0  0  0  0  0  0
   14.4656    0.7867    5.2854 H   0  0  0  0  0  0  0  0  0  0  0  0
   12.4487    1.2678    1.5309 H   0  0  0  0  0  0  0  0  0  0  0  0
   14.1831    1.1113    1.6739 H   0  0  0  0  0  0  0  0  0  0  0  0
   13.4000    2.6050    2.1308 H   0  0  0  0  0  0  0  0  0  0  0  0
   14.5947    3.5516    4.0673 H   0  0  0  0  0  0  0  0  0  0  0  0
   15.9286    2.0417    3.1408 H   0  0  0  0  0  0  0  0  0  0  0  0
   13.9504    2.7472    6.6950 H   0  0  0  0  0  0  0  0  0  0  0  0
   17.3858    0.3240    4.9165 H   0  0  0  0  0  0  0  0  0  0  0  0
   16.4603    1.5407    5.8112 H   0  0  0  0  0  0  0  0  0  0  0  0
   18.7634    2.2647    5.2722 H   0  0  0  0  0  0  0  0  0  0  0  0
   17.4955    3.3039    4.6059 H   0  0  0  0  0  0  0  0  0  0  0  0
   19.0132    0.1923    3.4080 H   0  0  0  0  0  0  0  0  0  0  0  0
   19.3932    0.8863    1.8051 H   0  0  0  0  0  0  0  0  0  0  0  0
   17.6211    3.8839    2.3715 H   0  0  0  0  0  0  0  0  0  0  0  0
   19.5620    4.7062    3.5833 H   0  0  0  0  0  0  0  0  0  0  0  0
   19.6373    5.2108    1.9121 H   0  0  0  0  0  0  0  0  0  0  0  0
   20.6271    3.8830    2.4694 H   0  0  0  0  0  0  0  0  0  0  0  0
   19.6220    2.6566    0.5214 H   0  0  0  0  0  0  0  0  0  0  0  0
   18.3804    3.8256    0.1404 H   0  0  0  0  0  0  0  0  0  0  0  0
   17.9388    2.1899    0.5674 H   0  0  0  0  0  0  0  0  0  0  0  0
  1  2  2  0  0  0  0
  2  3  1  0  0  0  0
  2  4  1  0  0  0  0
  3  5  1  0  0  0  0
  3  6  1  0  0  0  0
  3  7  1  0  0  0  0
  4  8  1  0  0  0  0
  4 36  1  0  0  0  0
  4 37  1  0  0  0  0
  5  9  1  0  0  0  0
  5 10  1  0  0  0  0
  5 38  1  0  0  0  0
  6 39  1  0  0  0  0
  6 40  1  0  0  0  0
  6 41  1  0  0  0  0
  7 42  1  0  0  0  0
  7 43  1  0  0  0  0
  7 44  1  0  0  0  0
  8  9  1  0  0  0  0
  8 45  1  0  0  0  0
  8 46  1  0  0  0  0
  9 11  1  0  0  0  0
  9 12  1  0  0  0  0
 10 13  1  0  0  0  0
 10 47  1  0  0  0  0
 10 48  1  0  0  0  0
 11 14  1  0  0  0  0
 11 15  2  0  0  0  0
 12 49  1  0  0  0  0
 12 50  1  0  0  0  0
 12 51  1  0  0  0  0
 13 14  2  0  0  0  0
 13 52  1  0  0  0  0
 14 16  1  0  0  0  0
 15 17  1  0  0  0  0
 15 53  1  0  0  0  0
 16 18  1  0  0  0  0
 16 19  1  0  0  0  0
 16 20  1  0  0  0  0
 17 18  1  0  0  0  0
 17 54  1  0  0  0  0
 17 55  1  0  0  0  0
 18 21  1  0  0  0  0
 18 22  1  0  0  0  0
 19 23  1  0  0  0  0
 19 56  1  0  0  0  0
 19 57  1  0  0  0  0
 20 58  1  0  0  0  0
 20 59  1  0  0  0  0
 20 60  1  0  0  0  0
 21 24  1  0  0  0  0
 21 23  1  0  0  0  0
 21 61  1  0  0  0  0
 22 62  1  0  0  0  0
 22 63  1  0  0  0  0
 22 64  1  0  0  0  0
 23 25  1  0  0  0  0
 23 65  1  0  0  0  0
 24 26  1  0  0  0  0
 24 27  1  0  0  0  0
 24 66  1  0  0  0  0
 25 67  1  0  0  0  0
 26 28  2  0  0  0  0
 26 29  1  0  0  0  0
 27 30  1  0  0  0  0
 27 68  1  0  0  0  0
 27 69  1  0  0  0  0
 30 31  1  0  0  0  0
 30 70  1  0  0  0  0
 30 71  1  0  0  0  0
 31 32  2  0  0  0  0
 31 33  1  0  0  0  0
 32 72  1  0  0  0  0
 32 73  1  0  0  0  0
 33 34  1  0  0  0  0
 33 35  1  0  0  0  0
 33 74  1  0  0  0  0
 34 75  1  0  0  0  0
 34 76  1  0  0  0  0
 34 77  1  0  0  0  0
 35 78  1  0  0  0  0
 35 79  1  0  0  0  0
 35 80  1  0  0  0  0
M  CHG  1  29  -1
M  END
>  <Code-name>
169

>  <Compound>
Polyporenic acid

>  <Specie>
Fomitopsis pinicola

>  <Reference>
Mehreen Zeb and Chow H. Lee, 2040

>  <Organism>
N/A

>  <Smiles>
CC(C)C(CC[C@H]([C@@H]([C@@H](C1)O)[C@]2(C)[C@]1(C)C1=CC[C@@H](C(C)(C)C(CC3)=O)[C@@]3(C)C1=CC2)C(O)=O)=C

>  <MMFF94 Energy>
82.774

>  <Total Molweight>
482.702

>  <Molweight>
482.702

>  <Monoisotopic Mass>
482.339610

>  <cLogP>
6.4465

>  <cLogS>
-5.679

>  <H-Acceptors>
4

>  <H-Donors>
2

>  <Total Surface Area>
366.15

>  <Relative PSA>
0.14278

>  <Polar Surface Area>
74.6

>  <Druglikeness>
-8.1851

>  <Mutagenic>
none

>  <Tumorigenic>
none

>  <Reproductive Effective>
none

>  <Irritant>
none

>  <Nasty Functions>


>  <Shape Index>
0.45714

>  <Molecular Flexibility>
0.35103

>  <Molecular Complexity>
1.0241

>  <Fragments>
1

>  <Non-H Atoms>
35

>  <Non-C/H Atoms>
4

>  <Metal-Atoms>
0

>  <Electronegative Atoms>
4

>  <Stereo Centers>
7

>  <Rotatable Bonds>
6

>  <Rings Closures>
4

>  <Small Rings>
4

>  <Aromatic Rings>
0

>  <Aromatic Atoms>
0

>  <sp3-Atoms>
25

>  <Symmetric atoms>
2

>  <Amides>
0

>  <Amines>
0

>  <Alkyl-Amines>
0

>  <Aromatic Amines>
0

>  <Aromatic Nitrogens>
0

>  <Basic Nitrogens>
0

>  <Acidic Oxygens>
1

>  <Stereo Configuration>
this enantiomer

> <Gold.Version>
5.8.1

> <Gold.Id.Protein>
ID_2|Prot_COX2_5IKQ_Alig|mol2

> <Gold.Goldscore.Fitness>
-34.0205

> <Gold.Goldscore.Internal.Vdw>
-27.5680

> <Gold.Goldscore.Internal.Torsion>
-10.3189

> <Gold.Goldscore.External.Vdw>
-17.0406

> <Gold.Goldscore.Internal.HBond>
0.0000

> <Gold.Goldscore.External.HBond>
2.0017

> <Gold.Goldscore.Internal.Correction>
-25.2954

> <Gold.Goldscore.Hbonds>
donor molecule, donor type, donor heavy atom, donor atom, acceptor molecule, acceptor atom, score
      P1  H  1377  1390       L1    29  0.05
      P1  H  5176  5185       L1    28  0.02
      P1  H  5703  5712       L1     1  0.68

> <Gold.Goldscore.Internal.Vdw.Weighted>
-27.5680

> <Gold.Goldscore.Internal.Torsion.Weighted>
-10.3189

> <Gold.Goldscore.External.Vdw.Weighted>
-23.4308

> <Gold.Goldscore.Internal.HBond.Weighted>
0.0000

> <Gold.Goldscore.External.HBond.Weighted>
2.0017

> <Gold.Goldscore.Internal.Correction.Weighted>
-25.2954

> <Gold.Protein.RotatedTorsions>
[ 5077 5068 5067 5065 ] final -123.29 input  179.94 | X-H torsion
[ 5157 5152 5151 5148 ] final  160.93 input -179.92 | X-H torsion
[ 5185 5176 5175 5173 ] final   14.74 input -179.99 | X-H torsion
[ 5712 5703 5702 5700 ] final   99.51 input  180.00 | X-H torsion
[ 8036 8031 8030 8027 ] final  -77.80 input -179.94 | X-H torsion
[ 2749 2745 2743 2740 ] final   72.00 input  -60.05 | X-H torsion
[ 1366 1361 1360 1357 ] final   53.21 input  -60.09 | X-H torsion
[ 2556 2551 2550 2547 ] final   -7.94 input   59.97 | X-H torsion

> <Gold.Protein.ActiveResidues>
 PRO86   VAL89   HIS90   LEU93   THR94   ILE112  MET113  TYR115  VAL116  LEU117 
 THR118  SER119  ARG120  SER121  LEU123  ILE124  GLN192  SER194  PHE198  PHE201 
 ALA202  GLN203  PHE205  THR206  PHE209  PHE210  VAL228  ILE341  ILE343  VAL344 
 ILE345  GLU346  ASP347  TYR348  VAL349  GLN350  HIS351  LEU352  SER353  GLY354 
 TYR355  PHE357  LEU359  LYS360  GLU380  PHE381  ASN382  THR383  LEU384  TYR385 
 HIS386  TRP387  LEU390  VAL434  LEU507  ARG513  ALA516  ILE517  PHE518  GLY519 
 GLU520  THR521  MET522  VAL523  GLU524  VAL525  GLY526  ALA527  PRO528  PHE529 
 SER530  LEU531  LYS532  GLY533  LEU534  MET535  COH609 

> <Gold.Protein.RotatedAtoms>
   17.8970    7.1516    1.9280 H   0  0  0  0  0  0  0  0  0  0  0  0  # atno 1366 bound_to 1361
    5.0438   -9.6521    8.1128 H   0  0  0  0  0  0  0  0  0  0  0  0  # atno 2556 bound_to 2551
   -3.9533    0.2203    0.0388 H   0  0  0  0  0  0  0  0  0  0  0  0  # atno 2749 bound_to 2745
    2.1646   -2.2655    3.8630 H   0  0  0  0  0  0  0  0  0  0  0  0  # atno 5077 bound_to 5068
   12.6284   -1.4921    9.1969 H   0  0  0  0  0  0  0  0  0  0  0  0  # atno 5157 bound_to 5152
   15.8537   -1.1140    4.6654 H   0  0  0  0  0  0  0  0  0  0  0  0  # atno 5185 bound_to 5176
    2.9806   -0.6793    2.4486 H   0  0  0  0  0  0  0  0  0  0  0  0  # atno 5712 bound_to 5703
    6.1392    4.9039    3.6680 H   0  0  0  0  0  0  0  0  0  0  0  0  # atno 8036 bound_to 8031
    1.0832   -1.2285    3.7343 LP  0  0  0  0  0  0  0  0  0  0  0  0  # atno 8267 bound_to 5068
    0.8091   -2.7272    4.3220 LP  0  0  0  0  0  0  0  0  0  0  0  0  # atno 8268 bound_to 5068
   12.5099   -2.9920    9.2332 LP  0  0  0  0  0  0  0  0  0  0  0  0  # atno 8279 bound_to 5152
   11.2199   -1.9982    9.3547 LP  0  0  0  0  0  0  0  0  0  0  0  0  # atno 8280 bound_to 5152
   16.6187    0.1131    5.0747 LP  0  0  0  0  0  0  0  0  0  0  0  0  # atno 8281 bound_to 5176
   15.0004    0.1082    4.8568 LP  0  0  0  0  0  0  0  0  0  0  0  0  # atno 8282 bound_to 5176
    1.5630   -0.8175    2.9283 LP  0  0  0  0  0  0  0  0  0  0  0  0  # atno 8283 bound_to 5703
    2.2313    0.6204    2.5378 LP  0  0  0  0  0  0  0  0  0  0  0  0  # atno 8284 bound_to 5703
    5.5412    3.5330    3.5176 LP  0  0  0  0  0  0  0  0  0  0  0  0  # atno 8309 bound_to 8031
    4.7049    4.9031    3.2178 LP  0  0  0  0  0  0  0  0  0  0  0  0  # atno 8310 bound_to 8031
   -3.7616   -0.1312    1.4890 LP  0  0  0  0  0  0  0  0  0  0  0  0  # atno 8323 bound_to 2745
   -2.7147   -0.5856    0.3210 LP  0  0  0  0  0  0  0  0  0  0  0  0  # atno 8324 bound_to 2745
   17.8792    7.7864    3.2921 LP  0  0  0  0  0  0  0  0  0  0  0  0  # atno 8335 bound_to 1361
   18.9095    6.5861    2.8866 LP  0  0  0  0  0  0  0  0  0  0  0  0  # atno 8336 bound_to 1361
    4.4571   -8.6291    7.1783 LP  0  0  0  0  0  0  0  0  0  0  0  0  # atno 8342 bound_to 2551
    5.0394  -10.0662    6.6661 LP  0  0  0  0  0  0  0  0  0  0  0  0  # atno 8343 bound_to 2551

