
171|LMW3_p|sdf|171|dock1
  -GOLD-   61022 0303D 1   1.00000     0.00000

 29 30  0  0  0  0  0  0  0  0  1 V2000
    5.0827    0.5535    2.3781 O   0  0  0  0  0  0  0  0  0  0  0  0
    5.9376    0.0848    1.6342 C   0  0  0  0  0  0  0  0  0  0  0  0
    7.3793    0.0406    2.0267 C   0  0  0  0  0  0  0  0  0  0  0  0
    5.5508   -0.4979    0.3297 C   0  0  1  0  0  0  0  0  0  0  0  0
    8.2792   -0.5848    1.2408 C   0  0  0  0  0  0  0  0  0  0  0  0
    7.7579    0.7054    3.3276 C   0  0  1  0  0  0  0  0  0  0  0  0
    6.1375    0.1573   -0.8137 O   0  0  0  0  0  0  0  0  0  0  0  0
    6.5760   -1.1776   -0.5343 C   0  0  1  0  0  0  0  0  0  0  0  0
    7.9831   -1.2860   -0.0498 C   0  0  2  0  0  0  0  0  0  0  0  0
    7.1891    0.0160    4.4367 O   0  0  0  0  0  0  0  0  0  0  0  0
    9.2501    0.7782    3.5208 C   0  0  0  0  0  0  0  0  0  0  0  0
    8.2913   -2.6620    0.1461 O   0  0  0  0  0  0  0  0  0  0  0  0
   10.0671   -0.1437    4.0711 C   0  0  0  0  0  0  0  0  0  0  0  0
    9.6268   -1.4615    4.6460 C   0  0  0  0  0  0  0  0  0  0  0  0
   11.5522    0.0995    4.1501 C   0  0  0  0  0  0  0  0  0  0  0  0
    4.5802   -0.7822    0.6791 H   0  0  0  0  0  0  0  0  0  0  0  0
    9.2614   -0.5800    1.5571 H   0  0  0  0  0  0  0  0  0  0  0  0
    7.3708    1.7017    3.2765 H   0  0  0  0  0  0  0  0  0  0  0  0
    6.6084   -2.1198   -1.0404 H   0  0  0  0  0  0  0  0  0  0  0  0
    8.5745   -0.8099   -0.8037 H   0  0  0  0  0  0  0  0  0  0  0  0
    6.2218    0.0321    4.3660 H   0  0  0  0  0  0  0  0  0  0  0  0
    9.7054    1.6433    3.1901 H   0  0  0  0  0  0  0  0  0  0  0  0
    9.2344   -2.7558    0.3526 H   0  0  0  0  0  0  0  0  0  0  0  0
    9.3532   -1.3295    5.6720 H   0  0  0  0  0  0  0  0  0  0  0  0
   10.4293   -2.1660    4.5786 H   0  0  0  0  0  0  0  0  0  0  0  0
    8.7845   -1.8269    4.0965 H   0  0  0  0  0  0  0  0  0  0  0  0
   12.0604   -0.5834    3.5018 H   0  0  0  0  0  0  0  0  0  0  0  0
   11.8849   -0.0491    5.1562 H   0  0  0  0  0  0  0  0  0  0  0  0
   11.7657    1.1036    3.8484 H   0  0  0  0  0  0  0  0  0  0  0  0
  1  2  2  0  0  0  0
  2  3  1  0  0  0  0
  2  4  1  0  0  0  0
  3  5  2  0  0  0  0
  3  6  1  0  0  0  0
  4  7  1  0  0  0  0
  4  8  1  0  0  0  0
  4 16  1  0  0  0  0
  5  9  1  0  0  0  0
  5 17  1  0  0  0  0
  6 10  1  0  0  0  0
  6 11  1  0  0  0  0
  6 18  1  0  0  0  0
  7  8  1  0  0  0  0
  8  9  1  0  0  0  0
  8 19  1  0  0  0  0
  9 12  1  0  0  0  0
  9 20  1  0  0  0  0
 10 21  1  0  0  0  0
 11 13  2  0  0  0  0
 11 22  1  0  0  0  0
 12 23  1  0  0  0  0
 13 14  1  0  0  0  0
 13 15  1  0  0  0  0
 14 24  1  0  0  0  0
 14 25  1  0  0  0  0
 14 26  1  0  0  0  0
 15 27  1  0  0  0  0
 15 28  1  0  0  0  0
 15 29  1  0  0  0  0
M  END
>  <Code-name>
171

>  <Compound>
Panepoxydone

>  <Specie>
Panus conchatus, Lentinus crinitus

>  <Reference>
ZAIDMAN et al., 2005

>  <Organism>
N/A

>  <Smiles>
CC(C)=C[C@@H](C(C([C@H]1O[C@H]11)=O)=C[C@H]1O)O

>  <MMFF94 Energy>
15.182

>  <Total Molweight>
210.228

>  <Molweight>
210.228

>  <Monoisotopic Mass>
210.089210

>  <cLogP>
0.2021

>  <cLogS>
-1.289

>  <H-Acceptors>
4

>  <H-Donors>
2

>  <Total Surface Area>
158.54

>  <Relative PSA>
0.35884

>  <Polar Surface Area>
70.06

>  <Druglikeness>
1.0143

>  <Mutagenic>
high

>  <Tumorigenic>
none

>  <Reproductive Effective>
none

>  <Irritant>
none

>  <Nasty Functions>
oxiran/aziridine

>  <Shape Index>
0.53333

>  <Molecular Flexibility>
0.33169

>  <Molecular Complexity>
0.78763

>  <Fragments>
1

>  <Non-H Atoms>
15

>  <Non-C/H Atoms>
4

>  <Metal-Atoms>
0

>  <Electronegative Atoms>
4

>  <Stereo Centers>
4

>  <Rotatable Bonds>
2

>  <Rings Closures>
2

>  <Small Rings>
3

>  <Aromatic Rings>
0

>  <Aromatic Atoms>
0

>  <sp3-Atoms>
9

>  <Symmetric atoms>
1

>  <Amides>
0

>  <Amines>
0

>  <Alkyl-Amines>
0

>  <Aromatic Amines>
0

>  <Aromatic Nitrogens>
0

>  <Basic Nitrogens>
0

>  <Acidic Oxygens>
0

>  <Stereo Configuration>
this enantiomer

> <Gold.Version>
5.8.1

> <Gold.Id.Protein>
ID_2|Prot_COX2_5IKQ_Alig|mol2

> <Gold.Goldscore.Fitness>
44.4810

> <Gold.Goldscore.Internal.Vdw>
-4.3138

> <Gold.Goldscore.Internal.Torsion>
-2.4729

> <Gold.Goldscore.External.Vdw>
32.6598

> <Gold.Goldscore.Internal.HBond>
0.0000

> <Gold.Goldscore.External.HBond>
2.0000

> <Gold.Goldscore.Internal.Correction>
-4.3605

> <Gold.Goldscore.Hbonds>
donor molecule, donor type, donor heavy atom, donor atom, acceptor molecule, acceptor atom, score
      P1  H  5703  5712       L1     1  1.00

> <Gold.Goldscore.Internal.Vdw.Weighted>
-4.3138

> <Gold.Goldscore.Internal.Torsion.Weighted>
-2.4729

> <Gold.Goldscore.External.Vdw.Weighted>
44.9072

> <Gold.Goldscore.Internal.HBond.Weighted>
0.0000

> <Gold.Goldscore.External.HBond.Weighted>
2.0000

> <Gold.Goldscore.Internal.Correction.Weighted>
-4.3605

> <Gold.Protein.RotatedTorsions>
[ 5077 5068 5067 5065 ] final   33.34 input  179.94 | X-H torsion
[ 5157 5152 5151 5148 ] final  164.53 input -179.92 | X-H torsion
[ 5185 5176 5175 5173 ] final   95.81 input -179.99 | X-H torsion
[ 5712 5703 5702 5700 ] final  137.34 input  180.00 | X-H torsion
[ 8036 8031 8030 8027 ] final  177.78 input -179.94 | X-H torsion
[ 2749 2745 2743 2740 ] final   37.53 input  -60.05 | X-H torsion
[ 1366 1361 1360 1357 ] final  -27.27 input  -60.09 | X-H torsion
[ 2556 2551 2550 2547 ] final  168.56 input   59.97 | X-H torsion

> <Gold.Protein.ActiveResidues>
 PRO86   VAL89   HIS90   LEU93   THR94   ILE112  MET113  TYR115  VAL116  LEU117 
 THR118  SER119  ARG120  SER121  LEU123  ILE124  GLN192  SER194  PHE198  PHE201 
 ALA202  GLN203  PHE205  THR206  PHE209  PHE210  VAL228  ILE341  ILE343  VAL344 
 ILE345  GLU346  ASP347  TYR348  VAL349  GLN350  HIS351  LEU352  SER353  GLY354 
 TYR355  PHE357  LEU359  LYS360  GLU380  PHE381  ASN382  THR383  LEU384  TYR385 
 HIS386  TRP387  LEU390  VAL434  LEU507  ARG513  ALA516  ILE517  PHE518  GLY519 
 GLU520  THR521  MET522  VAL523  GLU524  VAL525  GLY526  ALA527  PRO528  PHE529 
 SER530  LEU531  LYS532  GLY533  LEU534  MET535  COH609 

> <Gold.Protein.RotatedAtoms>
   17.6803    7.7585    2.7200 H   0  0  0  0  0  0  0  0  0  0  0  0  # atno 1366 bound_to 1361
    4.6415   -9.3371    6.6177 H   0  0  0  0  0  0  0  0  0  0  0  0  # atno 2556 bound_to 2551
   -4.1590    0.2852    0.4541 H   0  0  0  0  0  0  0  0  0  0  0  0  # atno 2749 bound_to 2745
    0.6634   -2.1903    4.2245 H   0  0  0  0  0  0  0  0  0  0  0  0  # atno 5077 bound_to 5068
   12.5883   -1.4632    9.2006 H   0  0  0  0  0  0  0  0  0  0  0  0  # atno 5157 bound_to 5152
   15.0560   -0.4763    4.7420 H   0  0  0  0  0  0  0  0  0  0  0  0  # atno 5185 bound_to 5176
    3.0344   -0.1782    2.3648 H   0  0  0  0  0  0  0  0  0  0  0  0  # atno 5712 bound_to 5703
    5.7481    3.7274    3.5414 H   0  0  0  0  0  0  0  0  0  0  0  0  # atno 8036 bound_to 8031
    2.0291   -2.7883    4.0281 LP  0  0  0  0  0  0  0  0  0  0  0  0  # atno 8267 bound_to 5068
    1.6609   -1.2574    3.5952 LP  0  0  0  0  0  0  0  0  0  0  0  0  # atno 8268 bound_to 5068
   12.5638   -2.9677    9.2289 LP  0  0  0  0  0  0  0  0  0  0  0  0  # atno 8279 bound_to 5152
   11.2141   -2.0572    9.3545 LP  0  0  0  0  0  0  0  0  0  0  0  0  # atno 8280 bound_to 5152
   16.4459   -1.0476    4.7179 LP  0  0  0  0  0  0  0  0  0  0  0  0  # atno 8281 bound_to 5176
   16.1310    0.5031    5.1216 LP  0  0  0  0  0  0  0  0  0  0  0  0  # atno 8282 bound_to 5176
    2.0361   -1.1955    2.8414 LP  0  0  0  0  0  0  0  0  0  0  0  0  # atno 8283 bound_to 5703
    1.6935    0.3969    2.7252 LP  0  0  0  0  0  0  0  0  0  0  0  0  # atno 8284 bound_to 5703
    4.6255    4.6643    3.1921 LP  0  0  0  0  0  0  0  0  0  0  0  0  # atno 8309 bound_to 8031
    6.0898    5.1833    3.6953 LP  0  0  0  0  0  0  0  0  0  0  0  0  # atno 8310 bound_to 8031
   -3.2770   -0.4081    1.4565 LP  0  0  0  0  0  0  0  0  0  0  0  0  # atno 8323 bound_to 2745
   -2.9529   -0.3864   -0.1439 LP  0  0  0  0  0  0  0  0  0  0  0  0  # atno 8324 bound_to 2745
   18.7746    6.9640    3.3798 LP  0  0  0  0  0  0  0  0  0  0  0  0  # atno 8335 bound_to 1361
   18.2733    6.6825    1.8514 LP  0  0  0  0  0  0  0  0  0  0  0  0  # atno 8336 bound_to 1361
    5.2928  -10.2645    7.6076 LP  0  0  0  0  0  0  0  0  0  0  0  0  # atno 8342 bound_to 2551
    4.6850   -8.8076    8.0255 LP  0  0  0  0  0  0  0  0  0  0  0  0  # atno 8343 bound_to 2551

