
174|LMW3_p|sdf|174|dock2
  -GOLD-   61022 2 13D 1   1.00000     0.00000

 39 41  0  0  0  0  0  0  0  0  1 V2000
    9.9583   -0.5817   -0.2085 O   0  0  0  0  0  0  0  0  0  0  0  0
    9.0032   -0.5351    0.5687 C   0  0  0  0  0  0  0  0  0  0  0  0
    9.1431   -0.0192    1.9536 C   0  0  0  0  0  0  0  0  0  0  0  0
    7.6053   -1.0649    0.1791 C   0  0  2  0  0  0  0  0  0  0  0  0
    8.0021    0.1151    2.8267 C   0  0  0  0  0  0  0  0  0  0  0  0
   10.2815    0.3297    2.5590 C   0  0  0  0  0  0  0  0  0  0  0  0
    7.4582   -0.9682   -1.2459 O   0  0  0  0  0  0  0  0  0  0  0  0
    6.4921   -0.2686    0.9018 C   0  0  0  0  0  0  0  0  0  0  0  0
    7.5272   -2.5541    0.5304 C   0  0  0  0  0  0  0  0  0  0  0  0
    6.7401   -0.0292    2.3726 C   0  0  0  0  0  0  0  0  0  0  0  0
    8.5317    0.4379    4.2050 C   0  0  2  0  0  0  0  0  0  0  0  0
   10.0370    0.8055    3.9793 C   0  0  2  0  0  0  0  0  0  0  0  0
    5.8608    0.9156    0.1739 C   0  0  0  0  0  0  0  0  0  0  0  0
    5.0752   -0.3485    0.3584 C   0  0  0  0  0  0  0  0  0  0  0  0
    5.5596    0.0503    3.3065 C   0  0  0  0  0  0  0  0  0  0  0  0
    8.3776   -0.7203    5.0286 O   0  0  0  0  0  0  0  0  0  0  0  0
   10.2653    2.3314    4.0770 C   0  0  0  0  0  0  0  0  0  0  0  0
   10.9949    0.0925    4.9424 C   0  0  0  0  0  0  0  0  0  0  0  0
    9.3170    3.0651    3.3096 O   0  0  0  0  0  0  0  0  0  0  0  0
   11.2122    0.2817    2.1157 H   0  0  0  0  0  0  0  0  0  0  0  0
    8.1679   -1.4680   -1.6789 H   0  0  0  0  0  0  0  0  0  0  0  0
    8.3323   -3.0751    0.0559 H   0  0  0  0  0  0  0  0  0  0  0  0
    6.5945   -2.9525    0.1896 H   0  0  0  0  0  0  0  0  0  0  0  0
    7.6003   -2.6747    1.5911 H   0  0  0  0  0  0  0  0  0  0  0  0
    8.0199    1.2407    4.6933 H   0  0  0  0  0  0  0  0  0  0  0  0
    6.2084    1.1912   -0.7997 H   0  0  0  0  0  0  0  0  0  0  0  0
    5.6981    1.9466    0.4090 H   0  0  0  0  0  0  0  0  0  0  0  0
    4.2456   -0.3667    1.0339 H   0  0  0  0  0  0  0  0  0  0  0  0
    4.5581   -1.0156   -0.2991 H   0  0  0  0  0  0  0  0  0  0  0  0
    4.9817   -0.8468    3.2281 H   0  0  0  0  0  0  0  0  0  0  0  0
    4.9518    0.8903    3.0423 H   0  0  0  0  0  0  0  0  0  0  0  0
    5.9073    0.1638    4.3120 H   0  0  0  0  0  0  0  0  0  0  0  0
    8.6862   -1.5033    4.5464 H   0  0  0  0  0  0  0  0  0  0  0  0
   11.2478    2.5570    3.7182 H   0  0  0  0  0  0  0  0  0  0  0  0
   10.1511    2.6167    5.1019 H   0  0  0  0  0  0  0  0  0  0  0  0
   10.9310   -0.9649    4.7914 H   0  0  0  0  0  0  0  0  0  0  0  0
   10.7253    0.3257    5.9513 H   0  0  0  0  0  0  0  0  0  0  0  0
   11.9966    0.4195    4.7562 H   0  0  0  0  0  0  0  0  0  0  0  0
    9.5017    4.0140    3.3890 H   0  0  0  0  0  0  0  0  0  0  0  0
  1  2  2  0  0  0  0
  2  3  1  0  0  0  0
  2  4  1  0  0  0  0
  3  5  1  0  0  0  0
  3  6  2  0  0  0  0
  4  7  1  0  0  0  0
  4  8  1  0  0  0  0
  4  9  1  0  0  0  0
  5 10  2  0  0  0  0
  5 11  1  0  0  0  0
  6 12  1  0  0  0  0
  6 20  1  0  0  0  0
  7 21  1  0  0  0  0
  8 13  1  0  0  0  0
  8 14  1  0  0  0  0
  8 10  1  0  0  0  0
  9 22  1  0  0  0  0
  9 23  1  0  0  0  0
  9 24  1  0  0  0  0
 10 15  1  0  0  0  0
 11 16  1  0  0  0  0
 11 12  1  0  0  0  0
 11 25  1  0  0  0  0
 12 17  1  0  0  0  0
 12 18  1  0  0  0  0
 13 14  1  0  0  0  0
 13 26  1  0  0  0  0
 13 27  1  0  0  0  0
 14 28  1  0  0  0  0
 14 29  1  0  0  0  0
 15 30  1  0  0  0  0
 15 31  1  0  0  0  0
 15 32  1  0  0  0  0
 16 33  1  0  0  0  0
 17 19  1  0  0  0  0
 17 34  1  0  0  0  0
 17 35  1  0  0  0  0
 18 36  1  0  0  0  0
 18 37  1  0  0  0  0
 18 38  1  0  0  0  0
 19 39  1  0  0  0  0
M  END
>  <Code-name>
174

>  <Compound>
Iludim S

>  <Specie>
Lamteromyces

>  <Reference>
POUCHERET; FONS;
RAPIOR, 2006;   MATSUOKA et al., (1989)

>  <Organism>
N/A

>  <Smiles>
C[C@](CO)([C@@H](C1=C(C)C2(CC2)[C@@]2(C)O)O)C=C1C2=O

>  <MMFF94 Energy>
114.59

>  <Total Molweight>
264.320

>  <Molweight>
264.320

>  <Monoisotopic Mass>
264.136160

>  <cLogP>
0.7377

>  <cLogS>
-1.638

>  <H-Acceptors>
4

>  <H-Donors>
3

>  <Total Surface Area>
179.22

>  <Relative PSA>
0.29204

>  <Polar Surface Area>
77.76

>  <Druglikeness>
-0.6639

>  <Mutagenic>
none

>  <Tumorigenic>
none

>  <Reproductive Effective>
none

>  <Irritant>
none

>  <Nasty Functions>


>  <Shape Index>
0.42105

>  <Molecular Flexibility>
0.21863

>  <Molecular Complexity>
0.94029

>  <Fragments>
1

>  <Non-H Atoms>
19

>  <Non-C/H Atoms>
4

>  <Metal-Atoms>
0

>  <Electronegative Atoms>
4

>  <Stereo Centers>
3

>  <Rotatable Bonds>
1

>  <Rings Closures>
3

>  <Small Rings>
3

>  <Aromatic Rings>
0

>  <Aromatic Atoms>
0

>  <sp3-Atoms>
13

>  <Symmetric atoms>
1

>  <Amides>
0

>  <Amines>
0

>  <Alkyl-Amines>
0

>  <Aromatic Amines>
0

>  <Aromatic Nitrogens>
0

>  <Basic Nitrogens>
0

>  <Acidic Oxygens>
0

>  <Stereo Configuration>
this enantiomer

> <Gold.Version>
5.8.1

> <Gold.Id.Protein>
ID_2|Prot_COX2_5IKQ_Alig|mol2

> <Gold.Goldscore.Fitness>
42.7599

> <Gold.Goldscore.Internal.Vdw>
-3.0470

> <Gold.Goldscore.Internal.Torsion>
-0.5239

> <Gold.Goldscore.External.Vdw>
30.5454

> <Gold.Goldscore.Internal.HBond>
0.0000

> <Gold.Goldscore.External.HBond>
0.8622

> <Gold.Goldscore.Internal.Correction>
-3.4686

> <Gold.Goldscore.Hbonds>
donor molecule, donor type, donor heavy atom, donor atom, acceptor molecule, acceptor atom, score
      L1  H     7    21       P1  7914  0.43

> <Gold.Goldscore.Internal.Vdw.Weighted>
-3.0470

> <Gold.Goldscore.Internal.Torsion.Weighted>
-0.5239

> <Gold.Goldscore.External.Vdw.Weighted>
41.9999

> <Gold.Goldscore.Internal.HBond.Weighted>
0.0000

> <Gold.Goldscore.External.HBond.Weighted>
0.8622

> <Gold.Goldscore.Internal.Correction.Weighted>
-3.4686

> <Gold.Protein.RotatedTorsions>
[ 5077 5068 5067 5065 ] final  167.79 input  179.94 | X-H torsion
[ 5157 5152 5151 5148 ] final -163.34 input -179.92 | X-H torsion
[ 5185 5176 5175 5173 ] final   89.20 input -179.99 | X-H torsion
[ 5712 5703 5702 5700 ] final -147.14 input  180.00 | X-H torsion
[ 8036 8031 8030 8027 ] final  171.80 input -179.94 | X-H torsion
[ 2749 2745 2743 2740 ] final  134.24 input  -60.05 | X-H torsion
[ 1366 1361 1360 1357 ] final  -13.74 input  -60.09 | X-H torsion
[ 2556 2551 2550 2547 ] final -103.43 input   59.97 | X-H torsion

> <Gold.Protein.ActiveResidues>
 PRO86   VAL89   HIS90   LEU93   THR94   ILE112  MET113  TYR115  VAL116  LEU117 
 THR118  SER119  ARG120  SER121  LEU123  ILE124  GLN192  SER194  PHE198  PHE201 
 ALA202  GLN203  PHE205  THR206  PHE209  PHE210  VAL228  ILE341  ILE343  VAL344 
 ILE345  GLU346  ASP347  TYR348  VAL349  GLN350  HIS351  LEU352  SER353  GLY354 
 TYR355  PHE357  LEU359  LYS360  GLU380  PHE381  ASN382  THR383  LEU384  TYR385 
 HIS386  TRP387  LEU390  VAL434  LEU507  ARG513  ALA516  ILE517  PHE518  GLY519 
 GLU520  THR521  MET522  VAL523  GLU524  VAL525  GLY526  ALA527  PRO528  PHE529 
 SER530  LEU531  LYS532  GLY533  LEU534  MET535  COH609 

> <Gold.Protein.RotatedAtoms>
   17.6387    7.7109    2.5449 H   0  0  0  0  0  0  0  0  0  0  0  0  # atno 1366 bound_to 1361
    4.5332   -8.7638    7.5480 H   0  0  0  0  0  0  0  0  0  0  0  0  # atno 2556 bound_to 2551
   -3.2590   -0.1551   -0.1701 H   0  0  0  0  0  0  0  0  0  0  0  0  # atno 2749 bound_to 2745
    1.8046   -1.4684    3.6810 H   0  0  0  0  0  0  0  0  0  0  0  0  # atno 5077 bound_to 5068
   12.1734   -1.3292    9.2375 H   0  0  0  0  0  0  0  0  0  0  0  0  # atno 5157 bound_to 5152
   15.0786   -0.5615    4.7205 H   0  0  0  0  0  0  0  0  0  0  0  0  # atno 5185 bound_to 5176
    2.3204    0.4596    2.4868 H   0  0  0  0  0  0  0  0  0  0  0  0  # atno 5712 bound_to 5703
    5.6731    3.7054    3.5156 H   0  0  0  0  0  0  0  0  0  0  0  0  # atno 8036 bound_to 8031
    0.4820   -2.0032    4.1567 LP  0  0  0  0  0  0  0  0  0  0  0  0  # atno 8267 bound_to 5068
    1.8415   -2.9070    4.1175 LP  0  0  0  0  0  0  0  0  0  0  0  0  # atno 8268 bound_to 5068
   12.9502   -2.6177    9.2003 LP  0  0  0  0  0  0  0  0  0  0  0  0  # atno 8279 bound_to 5152
   11.3239   -2.5674    9.3391 LP  0  0  0  0  0  0  0  0  0  0  0  0  # atno 8280 bound_to 5152
   16.5227   -0.9770    4.7485 LP  0  0  0  0  0  0  0  0  0  0  0  0  # atno 8281 bound_to 5176
   16.0271    0.5348    5.1168 LP  0  0  0  0  0  0  0  0  0  0  0  0  # atno 8282 bound_to 5176
    3.0771   -0.8389    2.4888 LP  0  0  0  0  0  0  0  0  0  0  0  0  # atno 8283 bound_to 5703
    1.5094   -0.7250    2.9314 LP  0  0  0  0  0  0  0  0  0  0  0  0  # atno 8284 bound_to 5703
    4.6491    4.7596    3.1995 LP  0  0  0  0  0  0  0  0  0  0  0  0  # atno 8309 bound_to 8031
    6.1561    5.1144    3.7188 LP  0  0  0  0  0  0  0  0  0  0  0  0  # atno 8310 bound_to 8031
   -4.3192    0.2821    0.8036 LP  0  0  0  0  0  0  0  0  0  0  0  0  # atno 8323 bound_to 2745
   -2.9886   -0.5492    1.2565 LP  0  0  0  0  0  0  0  0  0  0  0  0  # atno 8324 bound_to 2745
   18.6605    7.1254    3.4815 LP  0  0  0  0  0  0  0  0  0  0  0  0  # atno 8335 bound_to 1361
   18.4371    6.5780    1.9592 LP  0  0  0  0  0  0  0  0  0  0  0  0  # atno 8336 bound_to 1361
    4.8656   -9.7638    6.4739 LP  0  0  0  0  0  0  0  0  0  0  0  0  # atno 8342 bound_to 2551
    5.2417   -9.9943    8.0462 LP  0  0  0  0  0  0  0  0  0  0  0  0  # atno 8343 bound_to 2551

