
175|LMW3_p|sdf|175|dock1
  -GOLD-   61022 2 13D 1   1.00000     0.00000

 38 40  0  0  0  0  0  0  0  0  1 V2000
    8.4382    2.1149    3.3970 O   0  0  0  0  0  0  0  0  0  0  0  0
    9.3402    1.2754    3.4212 C   0  0  0  0  0  0  0  0  0  0  0  0
   10.6569    1.5561    4.0464 C   0  0  0  0  0  0  0  0  0  0  0  0
    9.1807   -0.1171    2.7716 C   0  0  2  0  0  0  0  0  0  0  0  0
   11.6676    0.5324    4.1662 C   0  0  0  0  0  0  0  0  0  0  0  0
   11.0789    2.7346    4.5129 C   0  0  0  0  0  0  0  0  0  0  0  0
    7.7840   -0.4535    2.7528 O   0  0  0  0  0  0  0  0  0  0  0  0
    9.9886   -1.1816    3.5539 C   0  0  0  0  0  0  0  0  0  0  0  0
    9.6389   -0.0414    1.3123 C   0  0  0  0  0  0  0  0  0  0  0  0
   11.3950   -0.7649    3.9132 C   0  0  0  0  0  0  0  0  0  0  0  0
   12.9436    1.2150    4.5918 C   0  0  2  0  0  0  0  0  0  0  0  0
   12.4873    2.6409    5.0554 C   0  0  0  0  0  0  0  0  0  0  0  0
    9.6420   -2.6471    3.3502 C   0  0  0  0  0  0  0  0  0  0  0  0
    9.2750   -1.9800    4.6423 C   0  0  0  0  0  0  0  0  0  0  0  0
   12.4741   -1.8157    3.9591 C   0  0  0  0  0  0  0  0  0  0  0  0
   13.8013    1.2490    3.4549 O   0  0  0  0  0  0  0  0  0  0  0  0
   13.3562    3.7775    4.5079 C   0  0  0  0  0  0  0  0  0  0  0  0
   12.4357    2.7175    6.5895 C   0  0  0  0  0  0  0  0  0  0  0  0
   10.5154    3.5992    4.5041 H   0  0  0  0  0  0  0  0  0  0  0  0
    7.2921    0.2348    2.2782 H   0  0  0  0  0  0  0  0  0  0  0  0
    9.3280   -0.9248    0.7946 H   0  0  0  0  0  0  0  0  0  0  0  0
   10.7055    0.0359    1.2769 H   0  0  0  0  0  0  0  0  0  0  0  0
    9.2032    0.8173    0.8457 H   0  0  0  0  0  0  0  0  0  0  0  0
   13.4813    0.7314    5.3804 H   0  0  0  0  0  0  0  0  0  0  0  0
   10.4203   -3.3812    3.3316 H   0  0  0  0  0  0  0  0  0  0  0  0
    9.1023   -3.1963    2.6072 H   0  0  0  0  0  0  0  0  0  0  0  0
    8.2484   -1.7783    4.8667 H   0  0  0  0  0  0  0  0  0  0  0  0
    9.4624   -2.1820    5.6761 H   0  0  0  0  0  0  0  0  0  0  0  0
   12.5096   -2.3317    3.0225 H   0  0  0  0  0  0  0  0  0  0  0  0
   12.2602   -2.5125    4.7423 H   0  0  0  0  0  0  0  0  0  0  0  0
   13.4187   -1.3489    4.1452 H   0  0  0  0  0  0  0  0  0  0  0  0
   13.3278    1.6403    2.7042 H   0  0  0  0  0  0  0  0  0  0  0  0
   13.1762    3.8907    3.4592 H   0  0  0  0  0  0  0  0  0  0  0  0
   14.3884    3.5472    4.6698 H   0  0  0  0  0  0  0  0  0  0  0  0
   13.1107    4.6888    5.0122 H   0  0  0  0  0  0  0  0  0  0  0  0
   12.0226    3.6589    6.8859 H   0  0  0  0  0  0  0  0  0  0  0  0
   13.4253    2.6218    6.9849 H   0  0  0  0  0  0  0  0  0  0  0  0
   11.8232    1.9250    6.9658 H   0  0  0  0  0  0  0  0  0  0  0  0
  1  2  2  0  0  0  0
  2  3  1  0  0  0  0
  2  4  1  0  0  0  0
  3  5  1  0  0  0  0
  3  6  2  0  0  0  0
  4  7  1  0  0  0  0
  4  8  1  0  0  0  0
  4  9  1  0  0  0  0
  5 10  2  0  0  0  0
  5 11  1  0  0  0  0
  6 12  1  0  0  0  0
  6 19  1  0  0  0  0
  7 20  1  0  0  0  0
  8 13  1  0  0  0  0
  8 14  1  0  0  0  0
  8 10  1  0  0  0  0
  9 21  1  0  0  0  0
  9 22  1  0  0  0  0
  9 23  1  0  0  0  0
 10 15  1  0  0  0  0
 11 16  1  0  0  0  0
 11 12  1  0  0  0  0
 11 24  1  0  0  0  0
 12 17  1  0  0  0  0
 12 18  1  0  0  0  0
 13 14  1  0  0  0  0
 13 25  1  0  0  0  0
 13 26  1  0  0  0  0
 14 27  1  0  0  0  0
 14 28  1  0  0  0  0
 15 29  1  0  0  0  0
 15 30  1  0  0  0  0
 15 31  1  0  0  0  0
 16 32  1  0  0  0  0
 17 33  1  0  0  0  0
 17 34  1  0  0  0  0
 17 35  1  0  0  0  0
 18 36  1  0  0  0  0
 18 37  1  0  0  0  0
 18 38  1  0  0  0  0
M  END
>  <Code-name>
175

>  <Compound>
Illudin M

>  <Specie>
Omphalotus illudens

>  <Reference>
POUCHERET; FONS;
RAPIOR, 2006;   MATSUOKA et al., (1989)

>  <Organism>
N/A

>  <Smiles>
CC(C)([C@@H](C1=C(C)C2(CC2)[C@@]2(C)O)O)C=C1C2=O

>  <MMFF94 Energy>
106.95

>  <Total Molweight>
248.321

>  <Molweight>
248.321

>  <Monoisotopic Mass>
248.141245

>  <cLogP>
1.6644

>  <cLogS>
-2.145

>  <H-Acceptors>
3

>  <H-Donors>
2

>  <Total Surface Area>
171.37

>  <Relative PSA>
0.22898

>  <Polar Surface Area>
57.53

>  <Druglikeness>
1.4572

>  <Mutagenic>
none

>  <Tumorigenic>
none

>  <Reproductive Effective>
none

>  <Irritant>
none

>  <Nasty Functions>


>  <Shape Index>
0.38889

>  <Molecular Flexibility>
0.13786

>  <Molecular Complexity>
0.92659

>  <Fragments>
1

>  <Non-H Atoms>
18

>  <Non-C/H Atoms>
3

>  <Metal-Atoms>
0

>  <Electronegative Atoms>
3

>  <Stereo Centers>
2

>  <Rotatable Bonds>
0

>  <Rings Closures>
3

>  <Small Rings>
3

>  <Aromatic Rings>
0

>  <Aromatic Atoms>
0

>  <sp3-Atoms>
12

>  <Symmetric atoms>
2

>  <Amides>
0

>  <Amines>
0

>  <Alkyl-Amines>
0

>  <Aromatic Amines>
0

>  <Aromatic Nitrogens>
0

>  <Basic Nitrogens>
0

>  <Acidic Oxygens>
0

>  <Stereo Configuration>
this enantiomer

> <Gold.Version>
5.8.1

> <Gold.Id.Protein>
ID_2|Prot_COX2_5IKQ_Alig|mol2

> <Gold.Goldscore.Fitness>
43.8184

> <Gold.Goldscore.Internal.Vdw>
-2.4480

> <Gold.Goldscore.Internal.Torsion>
-0.7369

> <Gold.Goldscore.External.Vdw>
31.4094

> <Gold.Goldscore.Internal.HBond>
0.0000

> <Gold.Goldscore.External.HBond>
1.0602

> <Gold.Goldscore.Internal.Correction>
-2.7552

> <Gold.Goldscore.Hbonds>
donor molecule, donor type, donor heavy atom, donor atom, acceptor molecule, acceptor atom, score
      P1  H  5176  5185       L1    16  0.53

> <Gold.Goldscore.Internal.Vdw.Weighted>
-2.4480

> <Gold.Goldscore.Internal.Torsion.Weighted>
-0.7369

> <Gold.Goldscore.External.Vdw.Weighted>
43.1879

> <Gold.Goldscore.Internal.HBond.Weighted>
0.0000

> <Gold.Goldscore.External.HBond.Weighted>
1.0602

> <Gold.Goldscore.Internal.Correction.Weighted>
-2.7552

> <Gold.Protein.RotatedTorsions>
[ 5077 5068 5067 5065 ] final   53.75 input  179.94 | X-H torsion
[ 5157 5152 5151 5148 ] final -170.64 input -179.92 | X-H torsion
[ 5185 5176 5175 5173 ] final  136.79 input -179.99 | X-H torsion
[ 5712 5703 5702 5700 ] final   21.93 input  180.00 | X-H torsion
[ 8036 8031 8030 8027 ] final  174.27 input -179.94 | X-H torsion
[ 2749 2745 2743 2740 ] final  -31.68 input  -60.05 | X-H torsion
[ 1366 1361 1360 1357 ] final -103.27 input  -60.09 | X-H torsion
[ 2556 2551 2550 2547 ] final  -18.21 input   59.97 | X-H torsion

> <Gold.Protein.ActiveResidues>
 PRO86   VAL89   HIS90   LEU93   THR94   ILE112  MET113  TYR115  VAL116  LEU117 
 THR118  SER119  ARG120  SER121  LEU123  ILE124  GLN192  SER194  PHE198  PHE201 
 ALA202  GLN203  PHE205  THR206  PHE209  PHE210  VAL228  ILE341  ILE343  VAL344 
 ILE345  GLU346  ASP347  TYR348  VAL349  GLN350  HIS351  LEU352  SER353  GLY354 
 TYR355  PHE357  LEU359  LYS360  GLU380  PHE381  ASN382  THR383  LEU384  TYR385 
 HIS386  TRP387  LEU390  VAL434  LEU507  ARG513  ALA516  ILE517  PHE518  GLY519 
 GLU520  THR521  MET522  VAL523  GLU524  VAL525  GLY526  ALA527  PRO528  PHE529 
 SER530  LEU531  LYS532  GLY533  LEU534  MET535  COH609 

> <Gold.Protein.RotatedAtoms>
   18.3298    7.4616    3.3810 H   0  0  0  0  0  0  0  0  0  0  0  0  # atno 1366 bound_to 1361
    4.9902   -9.5252    8.1451 H   0  0  0  0  0  0  0  0  0  0  0  0  # atno 2556 bound_to 2551
   -3.8757    0.0151    1.2613 H   0  0  0  0  0  0  0  0  0  0  0  0  # atno 2749 bound_to 2745
    0.6481   -1.9252    4.1370 H   0  0  0  0  0  0  0  0  0  0  0  0  # atno 5077 bound_to 5068
   12.2732   -1.3387    9.2289 H   0  0  0  0  0  0  0  0  0  0  0  0  # atno 5157 bound_to 5152
   15.1443    0.0439    4.9034 H   0  0  0  0  0  0  0  0  0  0  0  0  # atno 5185 bound_to 5176
    2.1280   -1.0749    2.7514 H   0  0  0  0  0  0  0  0  0  0  0  0  # atno 5712 bound_to 5703
    5.7044    3.7135    3.5264 H   0  0  0  0  0  0  0  0  0  0  0  0  # atno 8036 bound_to 8031
    1.7577   -2.9401    4.1506 LP  0  0  0  0  0  0  0  0  0  0  0  0  # atno 8267 bound_to 5068
    1.9506   -1.4232    3.5776 LP  0  0  0  0  0  0  0  0  0  0  0  0  # atno 8268 bound_to 5068
   12.8806   -2.7155    9.2051 LP  0  0  0  0  0  0  0  0  0  0  0  0  # atno 8279 bound_to 5152
   11.2741   -2.4582    9.3446 LP  0  0  0  0  0  0  0  0  0  0  0  0  # atno 8280 bound_to 5152
   15.8333   -1.2514    4.5774 LP  0  0  0  0  0  0  0  0  0  0  0  0  # atno 8281 bound_to 5176
   16.6376    0.0823    5.0684 LP  0  0  0  0  0  0  0  0  0  0  0  0  # atno 8282 bound_to 5176
    1.6440    0.3479    2.7464 LP  0  0  0  0  0  0  0  0  0  0  0  0  # atno 8283 bound_to 5703
    3.1735   -0.0702    2.3563 LP  0  0  0  0  0  0  0  0  0  0  0  0  # atno 8284 bound_to 5703
    4.6382    4.7205    3.1960 LP  0  0  0  0  0  0  0  0  0  0  0  0  # atno 8309 bound_to 8031
    6.1295    5.1438    3.7093 LP  0  0  0  0  0  0  0  0  0  0  0  0  # atno 8310 bound_to 8031
   -2.6981   -0.6294    0.5821 LP  0  0  0  0  0  0  0  0  0  0  0  0  # atno 8323 bound_to 2745
   -3.8712    0.1584   -0.2363 LP  0  0  0  0  0  0  0  0  0  0  0  0  # atno 8324 bound_to 2745
   18.7437    6.4674    2.3301 LP  0  0  0  0  0  0  0  0  0  0  0  0  # atno 8335 bound_to 1361
   17.5272    7.5343    2.1104 LP  0  0  0  0  0  0  0  0  0  0  0  0  # atno 8336 bound_to 1361
    4.4551   -8.6836    7.0184 LP  0  0  0  0  0  0  0  0  0  0  0  0  # atno 8342 bound_to 2551
    5.1055  -10.1635    6.7874 LP  0  0  0  0  0  0  0  0  0  0  0  0  # atno 8343 bound_to 2551

