
176|LMW3_p|sdf|176|dock3
  -GOLD-   61022 2 23D 1   1.00000     0.00000

 73 76  0  0  0  0  0  0  0  0  1 V2000
    4.8108   -1.1120   -0.5825 O   0  0  0  0  0  0  0  0  0  0  0  0
    6.0241   -0.5715   -0.0622 C   0  0  2  0  0  0  0  0  0  0  0  0
    6.7318   -1.6143    0.8042 C   0  0  0  0  0  0  0  0  0  0  0  0
    5.7116    0.6915    0.7353 C   0  0  0  0  0  0  0  0  0  0  0  0
    7.9366   -1.0558    1.5255 C   0  0  0  0  0  0  0  0  0  0  0  0
    6.9835    1.2841    1.3373 C   0  0  0  0  0  0  0  0  0  0  0  0
    9.0794   -1.7587    1.5894 C   0  0  0  0  0  0  0  0  0  0  0  0
    7.7891    0.2983    2.2342 C   0  0  2  0  0  0  0  0  0  0  0  0
   10.2429   -1.2890    2.2930 C   0  0  0  0  0  0  0  0  0  0  0  0
    9.2049    0.9733    2.5376 C   0  0  2  0  0  0  0  0  0  0  0  0
    6.9934    0.0179    3.5337 C   0  0  0  0  0  0  0  0  0  0  0  0
   10.3534   -0.0210    2.7182 C   0  0  0  0  0  0  0  0  0  0  0  0
    9.1358    2.0309    3.6762 C   0  0  0  0  0  0  0  0  0  0  0  0
   11.6401    0.5756    3.2310 C   0  0  1  0  0  0  0  0  0  0  0  0
   10.4983    2.5708    4.1385 C   0  0  0  0  0  0  0  0  0  0  0  0
   11.4655    1.4290    4.5102 C   0  0  2  0  0  0  0  0  0  0  0  0
   12.8429   -0.3088    3.5485 C   0  0  0  0  0  0  0  0  0  0  0  0
   12.9432    1.8672    4.7465 C   0  0  2  0  0  0  0  0  0  0  0  0
   10.9221    0.6119    5.7066 C   0  0  0  0  0  0  0  0  0  0  0  0
   13.7565    0.5874    4.3928 C   0  0  0  0  0  0  0  0  0  0  0  0
   13.3473    2.4416    6.1294 C   0  0  1  0  0  0  0  0  0  0  0  0
   14.7627    2.9845    6.0765 C   0  0  0  0  0  0  0  0  0  0  0  0
   12.4337    3.5680    6.6142 C   0  0  0  0  0  0  0  0  0  0  0  0
   15.4694    3.1262    4.9430 C   0  0  0  0  0  0  0  0  0  0  0  0
   16.8784    3.6730    4.8923 C   0  0  1  0  0  0  0  0  0  0  0  0
   17.9279    2.6410    4.3931 C   0  0  0  0  0  0  0  0  0  0  0  0
   16.8912    4.9562    4.0543 C   0  0  0  0  0  0  0  0  0  0  0  0
   19.3290    2.9631    4.9273 C   0  0  0  0  0  0  0  0  0  0  0  0
   17.5803    1.1827    4.7102 C   0  0  0  0  0  0  0  0  0  0  0  0
    4.3856   -0.4570   -1.1579 H   0  0  0  0  0  0  0  0  0  0  0  0
    6.6814   -0.3128   -0.8659 H   0  0  0  0  0  0  0  0  0  0  0  0
    7.0520   -2.4197    0.1767 H   0  0  0  0  0  0  0  0  0  0  0  0
    6.0352   -1.9425    1.5470 H   0  0  0  0  0  0  0  0  0  0  0  0
    5.0309    0.4482    1.5242 H   0  0  0  0  0  0  0  0  0  0  0  0
    5.2768    1.4135    0.0760 H   0  0  0  0  0  0  0  0  0  0  0  0
    6.7096    2.1304    1.9320 H   0  0  0  0  0  0  0  0  0  0  0  0
    7.6199    1.5404    0.5162 H   0  0  0  0  0  0  0  0  0  0  0  0
    9.1246   -2.6736    1.1140 H   0  0  0  0  0  0  0  0  0  0  0  0
   11.0162   -1.9474    2.4763 H   0  0  0  0  0  0  0  0  0  0  0  0
    9.4489    1.5058    1.6422 H   0  0  0  0  0  0  0  0  0  0  0  0
    7.6102   -0.5245    4.2195 H   0  0  0  0  0  0  0  0  0  0  0  0
    6.1239   -0.5608    3.3015 H   0  0  0  0  0  0  0  0  0  0  0  0
    6.6967    0.9453    3.9774 H   0  0  0  0  0  0  0  0  0  0  0  0
    8.6526    1.5819    4.5187 H   0  0  0  0  0  0  0  0  0  0  0  0
    8.6002    2.8672    3.2780 H   0  0  0  0  0  0  0  0  0  0  0  0
   11.8687    1.1198    2.3385 H   0  0  0  0  0  0  0  0  0  0  0  0
   10.3519    3.1945    4.9955 H   0  0  0  0  0  0  0  0  0  0  0  0
   10.9297    3.1251    3.3313 H   0  0  0  0  0  0  0  0  0  0  0  0
   13.3367   -0.6147    2.6499 H   0  0  0  0  0  0  0  0  0  0  0  0
   12.5670   -1.2084    4.0579 H   0  0  0  0  0  0  0  0  0  0  0  0
   13.1372    2.7291    4.1429 H   0  0  0  0  0  0  0  0  0  0  0  0
   10.6789    1.2749    6.5103 H   0  0  0  0  0  0  0  0  0  0  0  0
   11.6674   -0.0838    6.0312 H   0  0  0  0  0  0  0  0  0  0  0  0
   10.0442    0.0794    5.4055 H   0  0  0  0  0  0  0  0  0  0  0  0
   14.6303    0.8505    3.8343 H   0  0  0  0  0  0  0  0  0  0  0  0
   14.0729    0.0801    5.2802 H   0  0  0  0  0  0  0  0  0  0  0  0
   13.2626    1.6256    6.8163 H   0  0  0  0  0  0  0  0  0  0  0  0
   15.2094    3.2617    6.9645 H   0  0  0  0  0  0  0  0  0  0  0  0
   11.4710    3.1677    6.8549 H   0  0  0  0  0  0  0  0  0  0  0  0
   12.3319    4.3019    5.8422 H   0  0  0  0  0  0  0  0  0  0  0  0
   12.8589    4.0225    7.4846 H   0  0  0  0  0  0  0  0  0  0  0  0
   15.0249    2.8454    4.0550 H   0  0  0  0  0  0  0  0  0  0  0  0
   17.1766    3.8993    5.8947 H   0  0  0  0  0  0  0  0  0  0  0  0
   17.9139    2.7353    3.3273 H   0  0  0  0  0  0  0  0  0  0  0  0
   17.7876    5.5047    4.2554 H   0  0  0  0  0  0  0  0  0  0  0  0
   16.0419    5.5559    4.3072 H   0  0  0  0  0  0  0  0  0  0  0  0
   16.8529    4.7040    3.0152 H   0  0  0  0  0  0  0  0  0  0  0  0
   20.0549    2.3823    4.3976 H   0  0  0  0  0  0  0  0  0  0  0  0
   19.3759    2.7278    5.9700 H   0  0  0  0  0  0  0  0  0  0  0  0
   19.5336    4.0039    4.7870 H   0  0  0  0  0  0  0  0  0  0  0  0
   18.4630    0.5820    4.6387 H   0  0  0  0  0  0  0  0  0  0  0  0
   16.8510    0.8298    4.0113 H   0  0  0  0  0  0  0  0  0  0  0  0
   17.1843    1.1181    5.7022 H   0  0  0  0  0  0  0  0  0  0  0  0
  1  2  1  0  0  0  0
  1 30  1  0  0  0  0
  2  3  1  0  0  0  0
  2  4  1  0  0  0  0
  2 31  1  0  0  0  0
  3  5  1  0  0  0  0
  3 32  1  0  0  0  0
  3 33  1  0  0  0  0
  4  6  1  0  0  0  0
  4 34  1  0  0  0  0
  4 35  1  0  0  0  0
  5  7  2  0  0  0  0
  5  8  1  0  0  0  0
  6  8  1  0  0  0  0
  6 36  1  0  0  0  0
  6 37  1  0  0  0  0
  7  9  1  0  0  0  0
  7 38  1  0  0  0  0
  8 10  1  0  0  0  0
  8 11  1  0  0  0  0
  9 12  2  0  0  0  0
  9 39  1  0  0  0  0
 10 13  1  0  0  0  0
 10 12  1  0  0  0  0
 10 40  1  0  0  0  0
 11 41  1  0  0  0  0
 11 42  1  0  0  0  0
 11 43  1  0  0  0  0
 12 14  1  0  0  0  0
 13 15  1  0  0  0  0
 13 44  1  0  0  0  0
 13 45  1  0  0  0  0
 14 16  1  0  0  0  0
 14 17  1  0  0  0  0
 14 46  1  0  0  0  0
 15 16  1  0  0  0  0
 15 47  1  0  0  0  0
 15 48  1  0  0  0  0
 16 18  1  0  0  0  0
 16 19  1  0  0  0  0
 17 20  1  0  0  0  0
 17 49  1  0  0  0  0
 17 50  1  0  0  0  0
 18 21  1  0  0  0  0
 18 20  1  0  0  0  0
 18 51  1  0  0  0  0
 19 52  1  0  0  0  0
 19 53  1  0  0  0  0
 19 54  1  0  0  0  0
 20 55  1  0  0  0  0
 20 56  1  0  0  0  0
 21 22  1  0  0  0  0
 21 23  1  0  0  0  0
 21 57  1  0  0  0  0
 22 24  2  0  0  0  0
 22 58  1  0  0  0  0
 23 59  1  0  0  0  0
 23 60  1  0  0  0  0
 23 61  1  0  0  0  0
 24 25  1  0  0  0  0
 24 62  1  0  0  0  0
 25 26  1  0  0  0  0
 25 27  1  0  0  0  0
 25 63  1  0  0  0  0
 26 28  1  0  0  0  0
 26 29  1  0  0  0  0
 26 64  1  0  0  0  0
 27 65  1  0  0  0  0
 27 66  1  0  0  0  0
 27 67  1  0  0  0  0
 28 68  1  0  0  0  0
 28 69  1  0  0  0  0
 28 70  1  0  0  0  0
 29 71  1  0  0  0  0
 29 72  1  0  0  0  0
 29 73  1  0  0  0  0
M  END
>  <Code-name>
176

>  <Compound>
Ergosterol

>  <Specie>
Grifola frondosa, Agaricus blazei

>  <Reference>
FERREIRA et al., 2011

>  <Organism>
COX Inhibitor

>  <Smiles>
CC(C)[C@@H](C)/C=C/[C@@H](C)[C@@H](CC1)[C@]2(C)[C@@H]1C1=CC=C(C[C@H](CC3)O)[C@@]3(C)[C@H]1CC2

>  <MMFF94 Energy>
106.38

>  <Total Molweight>
396.656

>  <Molweight>
396.656

>  <Monoisotopic Mass>
396.339215

>  <cLogP>
7.0441

>  <cLogS>
-5.907

>  <H-Acceptors>
1

>  <H-Donors>
1

>  <Total Surface Area>
319.97

>  <Relative PSA>
0.040941

>  <Polar Surface Area>
20.23

>  <Druglikeness>
-1.1756

>  <Mutagenic>
none

>  <Tumorigenic>
none

>  <Reproductive Effective>
none

>  <Irritant>
none

>  <Nasty Functions>


>  <Shape Index>
0.55172

>  <Molecular Flexibility>
0.30848

>  <Molecular Complexity>
0.93607

>  <Fragments>
1

>  <Non-H Atoms>
29

>  <Non-C/H Atoms>
1

>  <Metal-Atoms>
0

>  <Electronegative Atoms>
1

>  <Stereo Centers>
8

>  <Rotatable Bonds>
4

>  <Rings Closures>
4

>  <Small Rings>
4

>  <Aromatic Rings>
0

>  <Aromatic Atoms>
0

>  <sp3-Atoms>
23

>  <Symmetric atoms>
1

>  <Amides>
0

>  <Amines>
0

>  <Alkyl-Amines>
0

>  <Aromatic Amines>
0

>  <Aromatic Nitrogens>
0

>  <Basic Nitrogens>
0

>  <Acidic Oxygens>
0

>  <Stereo Configuration>
this enantiomer

> <Gold.Version>
5.8.1

> <Gold.Id.Protein>
ID_2|Prot_COX2_5IKQ_Alig|mol2

> <Gold.Goldscore.Fitness>
5.8896

> <Gold.Goldscore.Internal.Vdw>
-28.5961

> <Gold.Goldscore.Internal.Torsion>
-3.3328

> <Gold.Goldscore.External.Vdw>
18.5265

> <Gold.Goldscore.Internal.HBond>
0.0000

> <Gold.Goldscore.External.HBond>
0.0000

> <Gold.Goldscore.Internal.Correction>
-12.3446

> <Gold.Goldscore.Internal.Vdw.Weighted>
-28.5961

> <Gold.Goldscore.Internal.Torsion.Weighted>
-3.3328

> <Gold.Goldscore.External.Vdw.Weighted>
25.4739

> <Gold.Goldscore.Internal.HBond.Weighted>
0.0000

> <Gold.Goldscore.External.HBond.Weighted>
0.0000

> <Gold.Goldscore.Internal.Correction.Weighted>
-12.3446

> <Gold.Protein.RotatedTorsions>
[ 5077 5068 5067 5065 ] final  -21.22 input  179.94 | X-H torsion
[ 5157 5152 5151 5148 ] final -108.26 input -179.92 | X-H torsion
[ 5185 5176 5175 5173 ] final   -1.44 input -179.99 | X-H torsion
[ 5712 5703 5702 5700 ] final  128.90 input  180.00 | X-H torsion
[ 8036 8031 8030 8027 ] final -162.61 input -179.94 | X-H torsion
[ 2749 2745 2743 2740 ] final   89.55 input  -60.05 | X-H torsion
[ 1366 1361 1360 1357 ] final  135.82 input  -60.09 | X-H torsion
[ 2556 2551 2550 2547 ] final -105.53 input   59.97 | X-H torsion

> <Gold.Protein.ActiveResidues>
 PRO86   VAL89   HIS90   LEU93   THR94   ILE112  MET113  TYR115  VAL116  LEU117 
 THR118  SER119  ARG120  SER121  LEU123  ILE124  GLN192  SER194  PHE198  PHE201 
 ALA202  GLN203  PHE205  THR206  PHE209  PHE210  VAL228  ILE341  ILE343  VAL344 
 ILE345  GLU346  ASP347  TYR348  VAL349  GLN350  HIS351  LEU352  SER353  GLY354 
 TYR355  PHE357  LEU359  LYS360  GLU380  PHE381  ASN382  THR383  LEU384  TYR385 
 HIS386  TRP387  LEU390  VAL434  LEU507  ARG513  ALA516  ILE517  PHE518  GLY519 
 GLU520  THR521  MET522  VAL523  GLU524  VAL525  GLY526  ALA527  PRO528  PHE529 
 SER530  LEU531  LYS532  GLY533  LEU534  MET535  COH609 

> <Gold.Protein.RotatedAtoms>
   18.6788    6.6110    2.3584 H   0  0  0  0  0  0  0  0  0  0  0  0  # atno 1366 bound_to 1361
    4.5268   -8.7602    7.5200 H   0  0  0  0  0  0  0  0  0  0  0  0  # atno 2556 bound_to 2551
   -3.7792    0.1383   -0.1062 H   0  0  0  0  0  0  0  0  0  0  0  0  # atno 2749 bound_to 2745
    1.1218   -2.7454    4.2976 H   0  0  0  0  0  0  0  0  0  0  0  0  # atno 5077 bound_to 5068
   11.5169   -1.6472    9.2894 H   0  0  0  0  0  0  0  0  0  0  0  0  # atno 5157 bound_to 5152
   16.0701   -1.0834    4.7032 H   0  0  0  0  0  0  0  0  0  0  0  0  # atno 5185 bound_to 5176
    3.0507   -0.2926    2.3756 H   0  0  0  0  0  0  0  0  0  0  0  0  # atno 5712 bound_to 5703
    5.9718    3.8549    3.6179 H   0  0  0  0  0  0  0  0  0  0  0  0  # atno 8036 bound_to 8031
    2.3059   -2.0385    3.6981 LP  0  0  0  0  0  0  0  0  0  0  0  0  # atno 8267 bound_to 5068
    0.8352   -1.3426    3.8377 LP  0  0  0  0  0  0  0  0  0  0  0  0  # atno 8268 bound_to 5068
   13.0162   -1.7476    9.2052 LP  0  0  0  0  0  0  0  0  0  0  0  0  # atno 8279 bound_to 5152
   12.0430   -3.0572    9.2721 LP  0  0  0  0  0  0  0  0  0  0  0  0  # atno 8280 bound_to 5152
   16.4479    0.3134    5.1094 LP  0  0  0  0  0  0  0  0  0  0  0  0  # atno 8281 bound_to 5176
   14.9115   -0.1289    4.7767 LP  0  0  0  0  0  0  0  0  0  0  0  0  # atno 8282 bound_to 5176
    1.9120   -1.1398    2.8700 LP  0  0  0  0  0  0  0  0  0  0  0  0  # atno 8283 bound_to 5703
    1.7980    0.4785    2.6836 LP  0  0  0  0  0  0  0  0  0  0  0  0  # atno 8284 bound_to 5703
    4.6155    4.3430    3.1910 LP  0  0  0  0  0  0  0  0  0  0  0  0  # atno 8309 bound_to 8031
    5.8314    5.3516    3.6045 LP  0  0  0  0  0  0  0  0  0  0  0  0  # atno 8310 bound_to 8031
   -3.9852    0.0129    1.3788 LP  0  0  0  0  0  0  0  0  0  0  0  0  # atno 8323 bound_to 2745
   -2.6997   -0.6314    0.6049 LP  0  0  0  0  0  0  0  0  0  0  0  0  # atno 8324 bound_to 2745
   17.5228    7.5450    2.1233 LP  0  0  0  0  0  0  0  0  0  0  0  0  # atno 8335 bound_to 1361
   18.3307    7.4742    3.5406 LP  0  0  0  0  0  0  0  0  0  0  0  0  # atno 8336 bound_to 1361
    4.8810   -9.7929    6.4845 LP  0  0  0  0  0  0  0  0  0  0  0  0  # atno 8342 bound_to 2551
    5.2341   -9.9695    8.0691 LP  0  0  0  0  0  0  0  0  0  0  0  0  # atno 8343 bound_to 2551

