
177|LMW3_p|sdf|177|dock2
  -GOLD-   61022 2 33D 1   1.00000     0.00000

 69 72  0  0  0  0  0  0  0  0  1 V2000
    4.2347   -0.5964    0.6494 O   0  0  0  0  0  0  0  0  0  0  0  0
    5.2404   -0.2910    1.2869 C   0  0  0  0  0  0  0  0  0  0  0  0
    6.4048   -1.2057    1.2803 C   0  0  0  0  0  0  0  0  0  0  0  0
    5.3039    0.9613    2.1249 C   0  0  0  0  0  0  0  0  0  0  0  0
    7.5098   -0.9423    1.9976 C   0  0  0  0  0  0  0  0  0  0  0  0
    6.7405    1.4293    2.3247 C   0  0  0  0  0  0  0  0  0  0  0  0
    8.6272   -1.8745    1.9743 C   0  0  0  0  0  0  0  0  0  0  0  0
    7.6777    0.3160    2.8639 C   0  0  2  0  0  0  0  0  0  0  0  0
    9.8274   -1.6039    2.5088 C   0  0  0  0  0  0  0  0  0  0  0  0
    9.1722    0.7991    2.7767 C   0  0  2  0  0  0  0  0  0  0  0  0
    7.2772   -0.0357    4.3188 C   0  0  0  0  0  0  0  0  0  0  0  0
   10.1563   -0.3217    3.1116 C   0  0  0  0  0  0  0  0  0  0  0  0
    9.4562    2.1122    3.5342 C   0  0  0  0  0  0  0  0  0  0  0  0
   11.2660   -0.1202    3.8509 C   0  0  0  0  0  0  0  0  0  0  0  0
   10.9578    2.3638    3.7002 C   0  0  0  0  0  0  0  0  0  0  0  0
   11.6450    1.2195    4.4721 C   0  0  2  0  0  0  0  0  0  0  0  0
   12.3858   -1.1092    4.0488 C   0  0  0  0  0  0  0  0  0  0  0  0
   13.1923    1.1920    4.3027 C   0  0  2  0  0  0  0  0  0  0  0  0
   11.2110    1.2296    5.9541 C   0  0  0  0  0  0  0  0  0  0  0  0
   13.5437   -0.2833    4.5979 C   0  0  0  0  0  0  0  0  0  0  0  0
   14.0485    2.1587    5.1648 C   0  0  1  0  0  0  0  0  0  0  0  0
   15.5043    2.0885    4.7445 C   0  0  0  0  0  0  0  0  0  0  0  0
   13.6088    3.6203    5.0724 C   0  0  0  0  0  0  0  0  0  0  0  0
   16.4941    2.7586    5.3572 C   0  0  0  0  0  0  0  0  0  0  0  0
   17.9474    2.6861    4.9384 C   0  0  1  0  0  0  0  0  0  0  0  0
   18.1944    3.4644    3.6152 C   0  0  0  0  0  0  0  0  0  0  0  0
   18.8019    3.2094    6.0989 C   0  0  0  0  0  0  0  0  0  0  0  0
   17.8175    4.9457    3.7359 C   0  0  0  0  0  0  0  0  0  0  0  0
   19.6588    3.3649    3.1639 C   0  0  0  0  0  0  0  0  0  0  0  0
    6.3667   -2.0659    0.7112 H   0  0  0  0  0  0  0  0  0  0  0  0
    4.8673    0.7619    3.0812 H   0  0  0  0  0  0  0  0  0  0  0  0
    4.7679    1.7337    1.6141 H   0  0  0  0  0  0  0  0  0  0  0  0
    6.7398    2.2404    3.0224 H   0  0  0  0  0  0  0  0  0  0  0  0
    7.1150    1.7230    1.3664 H   0  0  0  0  0  0  0  0  0  0  0  0
    8.4888   -2.7922    1.5229 H   0  0  0  0  0  0  0  0  0  0  0  0
   10.5511   -2.3395    2.4915 H   0  0  0  0  0  0  0  0  0  0  0  0
    9.3360    1.0523    1.7501 H   0  0  0  0  0  0  0  0  0  0  0  0
    7.9696   -0.7477    4.7172 H   0  0  0  0  0  0  0  0  0  0  0  0
    6.2922   -0.4535    4.3265 H   0  0  0  0  0  0  0  0  0  0  0  0
    7.2933    0.8509    4.9175 H   0  0  0  0  0  0  0  0  0  0  0  0
    9.0058    2.0567    4.5032 H   0  0  0  0  0  0  0  0  0  0  0  0
    9.0464    2.9191    2.9633 H   0  0  0  0  0  0  0  0  0  0  0  0
   11.0990    3.2783    4.2372 H   0  0  0  0  0  0  0  0  0  0  0  0
   11.3966    2.4200    2.7259 H   0  0  0  0  0  0  0  0  0  0  0  0
   12.6554   -1.5642    3.1186 H   0  0  0  0  0  0  0  0  0  0  0  0
   12.1094   -1.9051    4.7084 H   0  0  0  0  0  0  0  0  0  0  0  0
   13.4381    1.5515    3.3253 H   0  0  0  0  0  0  0  0  0  0  0  0
   10.9496    2.2263    6.2424 H   0  0  0  0  0  0  0  0  0  0  0  0
   12.0182    0.8818    6.5644 H   0  0  0  0  0  0  0  0  0  0  0  0
   10.3647    0.5876    6.0823 H   0  0  0  0  0  0  0  0  0  0  0  0
   14.4569   -0.5528    4.1097 H   0  0  0  0  0  0  0  0  0  0  0  0
   13.6825   -0.4511    5.6455 H   0  0  0  0  0  0  0  0  0  0  0  0
   13.9119    1.8339    6.1751 H   0  0  0  0  0  0  0  0  0  0  0  0
   15.7488    1.4903    3.9399 H   0  0  0  0  0  0  0  0  0  0  0  0
   13.2369    3.8195    4.0891 H   0  0  0  0  0  0  0  0  0  0  0  0
   14.4445    4.2576    5.2735 H   0  0  0  0  0  0  0  0  0  0  0  0
   12.8372    3.8067    5.7900 H   0  0  0  0  0  0  0  0  0  0  0  0
   16.2497    3.3583    6.1608 H   0  0  0  0  0  0  0  0  0  0  0  0
   18.2246    1.6737    4.7308 H   0  0  0  0  0  0  0  0  0  0  0  0
   17.5633    3.0037    2.8842 H   0  0  0  0  0  0  0  0  0  0  0  0
   18.4192    2.8297    7.0232 H   0  0  0  0  0  0  0  0  0  0  0  0
   18.7692    4.2789    6.1119 H   0  0  0  0  0  0  0  0  0  0  0  0
   19.8135    2.8851    5.9714 H   0  0  0  0  0  0  0  0  0  0  0  0
   18.5991    5.4725    4.2423 H   0  0  0  0  0  0  0  0  0  0  0  0
   16.9074    5.0381    4.2908 H   0  0  0  0  0  0  0  0  0  0  0  0
   17.6830    5.3603    2.7586 H   0  0  0  0  0  0  0  0  0  0  0  0
   19.8112    3.9879    2.3073 H   0  0  0  0  0  0  0  0  0  0  0  0
   19.8862    2.3501    2.9119 H   0  0  0  0  0  0  0  0  0  0  0  0
   20.2994    3.6873    3.9580 H   0  0  0  0  0  0  0  0  0  0  0  0
  1  2  2  0  0  0  0
  2  3  1  0  0  0  0
  2  4  1  0  0  0  0
  3  5  2  0  0  0  0
  3 30  1  0  0  0  0
  4  6  1  0  0  0  0
  4 31  1  0  0  0  0
  4 32  1  0  0  0  0
  5  7  1  0  0  0  0
  5  8  1  0  0  0  0
  6  8  1  0  0  0  0
  6 33  1  0  0  0  0
  6 34  1  0  0  0  0
  7  9  2  0  0  0  0
  7 35  1  0  0  0  0
  8 10  1  0  0  0  0
  8 11  1  0  0  0  0
  9 12  1  0  0  0  0
  9 36  1  0  0  0  0
 10 13  1  0  0  0  0
 10 12  1  0  0  0  0
 10 37  1  0  0  0  0
 11 38  1  0  0  0  0
 11 39  1  0  0  0  0
 11 40  1  0  0  0  0
 12 14  2  0  0  0  0
 13 15  1  0  0  0  0
 13 41  1  0  0  0  0
 13 42  1  0  0  0  0
 14 16  1  0  0  0  0
 14 17  1  0  0  0  0
 15 16  1  0  0  0  0
 15 43  1  0  0  0  0
 15 44  1  0  0  0  0
 16 18  1  0  0  0  0
 16 19  1  0  0  0  0
 17 20  1  0  0  0  0
 17 45  1  0  0  0  0
 17 46  1  0  0  0  0
 18 21  1  0  0  0  0
 18 20  1  0  0  0  0
 18 47  1  0  0  0  0
 19 48  1  0  0  0  0
 19 49  1  0  0  0  0
 19 50  1  0  0  0  0
 20 51  1  0  0  0  0
 20 52  1  0  0  0  0
 21 22  1  0  0  0  0
 21 23  1  0  0  0  0
 21 53  1  0  0  0  0
 22 24  2  0  0  0  0
 22 54  1  0  0  0  0
 23 55  1  0  0  0  0
 23 56  1  0  0  0  0
 23 57  1  0  0  0  0
 24 25  1  0  0  0  0
 24 58  1  0  0  0  0
 25 26  1  0  0  0  0
 25 27  1  0  0  0  0
 25 59  1  0  0  0  0
 26 28  1  0  0  0  0
 26 29  1  0  0  0  0
 26 60  1  0  0  0  0
 27 61  1  0  0  0  0
 27 62  1  0  0  0  0
 27 63  1  0  0  0  0
 28 64  1  0  0  0  0
 28 65  1  0  0  0  0
 28 66  1  0  0  0  0
 29 67  1  0  0  0  0
 29 68  1  0  0  0  0
 29 69  1  0  0  0  0
M  END
>  <Code-name>
177

>  <Compound>
Ergosta-4,6,8(14),22-tetraen-3-one

>  <Specie>
Grifola frondosa,Ganoderma applanatum,G.neojaponicum

>  <Reference>
FERREIRA et al., 2010

>  <Organism>
COX Inhibitor

>  <Smiles>
CC(C)[C@@H](C)/C=C/[C@@H](C)[C@@H](CC1)[C@@](C)(CC[C@@H]2[C@@]3(C)CC4)C1=C2C=CC3=CC4=O

>  <MMFF94 Energy>
77.842

>  <Total Molweight>
392.625

>  <Molweight>
392.625

>  <Monoisotopic Mass>
392.307915

>  <cLogP>
7.0833

>  <cLogS>
-5.694

>  <H-Acceptors>
1

>  <H-Donors>
0

>  <Total Surface Area>
317.32

>  <Relative PSA>
0.041094

>  <Polar Surface Area>
17.07

>  <Druglikeness>
-1.0256

>  <Mutagenic>
none

>  <Tumorigenic>
none

>  <Reproductive Effective>
none

>  <Irritant>
none

>  <Nasty Functions>


>  <Shape Index>
0.55172

>  <Molecular Flexibility>
0.32341

>  <Molecular Complexity>
0.95777

>  <Fragments>
1

>  <Non-H Atoms>
29

>  <Non-C/H Atoms>
1

>  <Metal-Atoms>
0

>  <Electronegative Atoms>
1

>  <Stereo Centers>
6

>  <Rotatable Bonds>
4

>  <Rings Closures>
4

>  <Small Rings>
4

>  <Aromatic Rings>
0

>  <Aromatic Atoms>
0

>  <sp3-Atoms>
19

>  <Symmetric atoms>
1

>  <Amides>
0

>  <Amines>
0

>  <Alkyl-Amines>
0

>  <Aromatic Amines>
0

>  <Aromatic Nitrogens>
0

>  <Basic Nitrogens>
0

>  <Acidic Oxygens>
0

>  <Stereo Configuration>
this enantiomer

> <Gold.Version>
5.8.1

> <Gold.Id.Protein>
ID_2|Prot_COX2_5IKQ_Alig|mol2

> <Gold.Goldscore.Fitness>
15.0160

> <Gold.Goldscore.Internal.Vdw>
-14.2000

> <Gold.Goldscore.Internal.Torsion>
-6.9203

> <Gold.Goldscore.External.Vdw>
17.7830

> <Gold.Goldscore.Internal.HBond>
0.0000

> <Gold.Goldscore.External.HBond>
0.0000

> <Gold.Goldscore.Internal.Correction>
-11.6847

> <Gold.Goldscore.Internal.Vdw.Weighted>
-14.2000

> <Gold.Goldscore.Internal.Torsion.Weighted>
-6.9203

> <Gold.Goldscore.External.Vdw.Weighted>
24.4516

> <Gold.Goldscore.Internal.HBond.Weighted>
0.0000

> <Gold.Goldscore.External.HBond.Weighted>
0.0000

> <Gold.Goldscore.Internal.Correction.Weighted>
-11.6847

> <Gold.Protein.RotatedTorsions>
[ 5077 5068 5067 5065 ] final -164.66 input  179.94 | X-H torsion
[ 5157 5152 5151 5148 ] final  146.21 input -179.92 | X-H torsion
[ 5185 5176 5175 5173 ] final  -68.90 input -179.99 | X-H torsion
[ 5712 5703 5702 5700 ] final   83.70 input  180.00 | X-H torsion
[ 8036 8031 8030 8027 ] final  125.72 input -179.94 | X-H torsion
[ 2749 2745 2743 2740 ] final   22.46 input  -60.05 | X-H torsion
[ 1366 1361 1360 1357 ] final  -29.94 input  -60.09 | X-H torsion
[ 2556 2551 2550 2547 ] final   85.46 input   59.97 | X-H torsion

> <Gold.Protein.ActiveResidues>
 PRO86   VAL89   HIS90   LEU93   THR94   ILE112  MET113  TYR115  VAL116  LEU117 
 THR118  SER119  ARG120  SER121  LEU123  ILE124  GLN192  SER194  PHE198  PHE201 
 ALA202  GLN203  PHE205  THR206  PHE209  PHE210  VAL228  ILE341  ILE343  VAL344 
 ILE345  GLU346  ASP347  TYR348  VAL349  GLN350  HIS351  LEU352  SER353  GLY354 
 TYR355  PHE357  LEU359  LYS360  GLU380  PHE381  ASN382  THR383  LEU384  TYR385 
 HIS386  TRP387  LEU390  VAL434  LEU507  ARG513  ALA516  ILE517  PHE518  GLY519 
 GLU520  THR521  MET522  VAL523  GLU524  VAL525  GLY526  ALA527  PRO528  PHE529 
 SER530  LEU531  LYS532  GLY533  LEU534  MET535  COH609 

> <Gold.Protein.RotatedAtoms>
   17.6922    7.7643    2.7544 H   0  0  0  0  0  0  0  0  0  0  0  0  # atno 1366 bound_to 1361
    5.1028  -10.1569    7.0807 H   0  0  0  0  0  0  0  0  0  0  0  0  # atno 2556 bound_to 2551
   -4.1768    0.2686    0.6598 H   0  0  0  0  0  0  0  0  0  0  0  0  # atno 2749 bound_to 2745
    2.0637   -1.7395    3.7076 H   0  0  0  0  0  0  0  0  0  0  0  0  # atno 5077 bound_to 5068
   12.7714   -1.6350    9.1830 H   0  0  0  0  0  0  0  0  0  0  0  0  # atno 5157 bound_to 5152
   16.6022   -0.4378    4.9599 H   0  0  0  0  0  0  0  0  0  0  0  0  # atno 5185 bound_to 5176
    2.8667   -0.8548    2.5057 H   0  0  0  0  0  0  0  0  0  0  0  0  # atno 5712 bound_to 5703
    5.1000    3.8177    3.3163 H   0  0  0  0  0  0  0  0  0  0  0  0  # atno 8036 bound_to 8031
    0.5930   -1.6013    3.9894 LP  0  0  0  0  0  0  0  0  0  0  0  0  # atno 8267 bound_to 5068
    1.4202   -2.9844    4.2529 LP  0  0  0  0  0  0  0  0  0  0  0  0  # atno 8268 bound_to 5068
   12.2773   -3.0549    9.2522 LP  0  0  0  0  0  0  0  0  0  0  0  0  # atno 8279 bound_to 5152
   11.2815   -1.7645    9.3523 LP  0  0  0  0  0  0  0  0  0  0  0  0  # atno 8280 bound_to 5152
   15.4178    0.4853    5.0211 LP  0  0  0  0  0  0  0  0  0  0  0  0  # atno 8281 bound_to 5176
   15.3026   -1.0760    4.5568 LP  0  0  0  0  0  0  0  0  0  0  0  0  # atno 8282 bound_to 5176
    1.4506   -0.5835    2.9293 LP  0  0  0  0  0  0  0  0  0  0  0  0  # atno 8283 bound_to 5703
    2.4803    0.5970    2.4682 LP  0  0  0  0  0  0  0  0  0  0  0  0  # atno 8284 bound_to 5703
    5.1043    5.3206    3.3530 LP  0  0  0  0  0  0  0  0  0  0  0  0  # atno 8309 bound_to 8031
    6.3886    4.4187    3.8045 LP  0  0  0  0  0  0  0  0  0  0  0  0  # atno 8310 bound_to 8031
   -3.0816   -0.5062    1.3405 LP  0  0  0  0  0  0  0  0  0  0  0  0  # atno 8323 bound_to 2745
   -3.1270   -0.2684   -0.2744 LP  0  0  0  0  0  0  0  0  0  0  0  0  # atno 8324 bound_to 2745
   18.7935    6.9332    3.3548 LP  0  0  0  0  0  0  0  0  0  0  0  0  # atno 8335 bound_to 1361
   18.2401    6.7064    1.8353 LP  0  0  0  0  0  0  0  0  0  0  0  0  # atno 8336 bound_to 1361
    4.9467   -9.2728    8.2882 LP  0  0  0  0  0  0  0  0  0  0  0  0  # atno 8342 bound_to 2551
    4.4792   -8.8185    6.7910 LP  0  0  0  0  0  0  0  0  0  0  0  0  # atno 8343 bound_to 2551

