
178|LMW3_p|sdf|178|dock4
  -GOLD-   61022 2 53D 1   1.00000     0.00000

 73 76  0  0  0  0  0  0  0  0  2 V2000
    8.2379    3.0170    4.8468 O   0  0  0  0  0  0  0  0  0  0  0  0
    9.3602    2.5554    4.6413 C   0  0  0  0  0  0  0  0  0  0  0  0
    9.5675    1.3359    3.7495 C   0  0  0  0  0  0  0  0  0  0  0  0
   10.5451    3.2377    5.3110 C   0  0  0  0  0  0  0  0  0  0  0  0
   10.8373    0.8802    3.5553 C   0  0  0  0  0  0  0  0  0  0  0  0
    8.3209    0.6415    3.1210 C   0  0  2  0  0  0  0  0  0  0  0  0
   11.7467    2.3083    5.4238 C   0  0  1  0  0  0  0  0  0  0  0  0
   12.0476    1.7032    4.0140 C   0  0  1  0  0  0  0  0  0  0  0  0
   11.1400   -0.3805    2.7796 C   0  0  1  0  0  0  0  0  0  0  0  0
    8.8007   -0.1842    1.8588 C   0  0  1  0  0  0  0  0  0  0  0  0
    7.2514    1.6481    2.6047 C   0  0  0  0  0  0  0  0  0  0  0  0
    7.7150   -0.2101    4.2585 C   0  0  0  0  0  0  0  0  0  0  0  0
   13.0963    3.0111    5.7665 C   0  0  1  0  0  0  0  0  0  0  0  0
   11.4179    1.2276    6.5044 C   0  0  0  0  0  0  0  0  0  0  0  0
   13.4214    1.0326    4.3019 C   0  0  2  0  0  0  0  0  0  0  0  0
   12.2526    2.7551    2.8730 C   0  0  0  0  0  0  0  0  0  0  0  0
   11.8389   -1.2843    3.6308 O   0  0  0  0  0  0  0  0  0  0  0  0
    9.9251   -1.1436    2.2546 C   0  0  0  0  0  0  0  0  0  0  0  0
    7.6942   -0.8470    0.9503 C   0  0  1  0  0  0  0  0  0  0  0  0
    6.1327    1.0178    1.7801 C   0  0  0  0  0  0  0  0  0  0  0  0
   13.2900    3.5086    7.1949 C   0  0  0  0  0  0  0  0  0  0  0  0
   14.1700    2.0377    5.2056 C   0  0  0  0  0  0  0  0  0  0  0  0
   14.1747    0.7614    3.1263 O   0  0  0  0  0  0  0  0  0  0  0  0
    6.6568    0.2470    0.5754 C   0  0  2  0  0  0  0  0  0  0  0  0
    8.3132   -1.3747   -0.3843 C   0  0  0  0  0  0  0  0  0  0  0  0
    7.0047   -2.0723    1.5906 C   0  0  0  0  0  0  0  0  0  0  0  0
   14.4250    3.3579    7.9013 C   0  0  0  0  0  0  0  0  0  0  0  0
   12.1097    4.2245    7.8341 C   0  0  0  0  0  0  0  0  0  0  0  0
    5.5505   -0.3143   -0.1363 O   0  0  0  0  0  0  0  0  0  0  0  0
    8.9189   -2.6509   -0.2144 O   0  0  0  0  0  0  0  0  0  0  0  0
   12.0194    5.7065    7.4769 C   0  0  0  0  0  0  0  0  0  0  0  0
   10.7035    6.3147    7.8679 C   0  0  0  0  0  0  0  0  0  0  0  0
   10.3478    7.4615    7.6518 O   0  0  0  0  0  0  0  0  0  0  0  0
    9.8750    5.4421    8.4720 O   0  5  0  0  0  0  0  0  0  0  0  0
   10.2553    3.5491    6.2928 H   0  0  0  0  0  0  0  0  0  0  0  0
   10.8292    4.0752    4.7087 H   0  0  0  0  0  0  0  0  0  0  0  0
   11.6993   -0.0487    1.9299 H   0  0  0  0  0  0  0  0  0  0  0  0
    9.1797    0.5544    1.1838 H   0  0  0  0  0  0  0  0  0  0  0  0
    7.7449    2.3768    1.9962 H   0  0  0  0  0  0  0  0  0  0  0  0
    6.7883    2.0704    3.4720 H   0  0  0  0  0  0  0  0  0  0  0  0
    7.2867    0.4345    4.9974 H   0  0  0  0  0  0  0  0  0  0  0  0
    8.4832   -0.8053    4.7065 H   0  0  0  0  0  0  0  0  0  0  0  0
    6.9555   -0.8495    3.8596 H   0  0  0  0  0  0  0  0  0  0  0  0
   13.1572    3.9763    5.3087 H   0  0  0  0  0  0  0  0  0  0  0  0
   10.6436    0.5843    6.1415 H   0  0  0  0  0  0  0  0  0  0  0  0
   11.0900    1.7090    7.4020 H   0  0  0  0  0  0  0  0  0  0  0  0
   12.2947    0.6498    6.7094 H   0  0  0  0  0  0  0  0  0  0  0  0
   13.2808    0.0760    4.7602 H   0  0  0  0  0  0  0  0  0  0  0  0
   12.4569    2.2482    1.9530 H   0  0  0  0  0  0  0  0  0  0  0  0
   13.0759    3.3927    3.1193 H   0  0  0  0  0  0  0  0  0  0  0  0
   11.3652    3.3434    2.7665 H   0  0  0  0  0  0  0  0  0  0  0  0
   11.2934   -1.4845    4.4074 H   0  0  0  0  0  0  0  0  0  0  0  0
    9.5693   -1.8026    3.0188 H   0  0  0  0  0  0  0  0  0  0  0  0
   10.2201   -1.6973    1.3879 H   0  0  0  0  0  0  0  0  0  0  0  0
    5.4828    1.7942    1.4339 H   0  0  0  0  0  0  0  0  0  0  0  0
    5.6169    0.3235    2.4101 H   0  0  0  0  0  0  0  0  0  0  0  0
   14.6569    1.5227    6.0073 H   0  0  0  0  0  0  0  0  0  0  0  0
   14.9221    2.5655    4.6572 H   0  0  0  0  0  0  0  0  0  0  0  0
   14.9722    0.2619    3.3614 H   0  0  0  0  0  0  0  0  0  0  0  0
    7.1831    0.9377   -0.0498 H   0  0  0  0  0  0  0  0  0  0  0  0
    9.0548   -0.6807   -0.7209 H   0  0  0  0  0  0  0  0  0  0  0  0
    7.5256   -1.4719   -1.1020 H   0  0  0  0  0  0  0  0  0  0  0  0
    6.0963   -1.7635    2.0641 H   0  0  0  0  0  0  0  0  0  0  0  0
    7.6563   -2.5081    2.3189 H   0  0  0  0  0  0  0  0  0  0  0  0
    6.7841   -2.7942    0.8322 H   0  0  0  0  0  0  0  0  0  0  0  0
   15.2341    2.8744    7.4809 H   0  0  0  0  0  0  0  0  0  0  0  0
   14.4866    3.7257    8.8635 H   0  0  0  0  0  0  0  0  0  0  0  0
   12.1987    4.1387    8.8970 H   0  0  0  0  0  0  0  0  0  0  0  0
   11.2227    3.7590    7.4581 H   0  0  0  0  0  0  0  0  0  0  0  0
    4.9520    0.3960   -0.4159 H   0  0  0  0  0  0  0  0  0  0  0  0
    9.2845   -2.9507   -1.0614 H   0  0  0  0  0  0  0  0  0  0  0  0
   12.1455    5.8125    6.4196 H   0  0  0  0  0  0  0  0  0  0  0  0
   12.7872    6.2181    8.0187 H   0  0  0  0  0  0  0  0  0  0  0  0
  1  2  2  0  0  0  0
  2  3  1  0  0  0  0
  2  4  1  0  0  0  0
  3  5  2  0  0  0  0
  3  6  1  0  0  0  0
  4  7  1  0  0  0  0
  4 35  1  0  0  0  0
  4 36  1  0  0  0  0
  5  8  1  0  0  0  0
  5  9  1  0  0  0  0
  6 10  1  0  0  0  0
  6 11  1  0  0  0  0
  6 12  1  0  0  0  0
  7 13  1  0  0  0  0
  7 14  1  0  0  0  0
  7  8  1  0  0  0  0
  8 15  1  0  0  0  0
  8 16  1  0  0  0  0
  9 17  1  0  0  0  0
  9 18  1  0  0  0  0
  9 37  1  0  0  0  0
 10 19  1  0  0  0  0
 10 18  1  0  0  0  0
 10 38  1  0  0  0  0
 11 20  1  0  0  0  0
 11 39  1  0  0  0  0
 11 40  1  0  0  0  0
 12 41  1  0  0  0  0
 12 42  1  0  0  0  0
 12 43  1  0  0  0  0
 13 21  1  0  0  0  0
 13 22  1  0  0  0  0
 13 44  1  0  0  0  0
 14 45  1  0  0  0  0
 14 46  1  0  0  0  0
 14 47  1  0  0  0  0
 15 23  1  0  0  0  0
 15 22  1  0  0  0  0
 15 48  1  0  0  0  0
 16 49  1  0  0  0  0
 16 50  1  0  0  0  0
 16 51  1  0  0  0  0
 17 52  1  0  0  0  0
 18 53  1  0  0  0  0
 18 54  1  0  0  0  0
 19 24  1  0  0  0  0
 19 25  1  0  0  0  0
 19 26  1  0  0  0  0
 20 24  1  0  0  0  0
 20 55  1  0  0  0  0
 20 56  1  0  0  0  0
 21 27  2  0  0  0  0
 21 28  1  0  0  0  0
 22 57  1  0  0  0  0
 22 58  1  0  0  0  0
 23 59  1  0  0  0  0
 24 29  1  0  0  0  0
 24 60  1  0  0  0  0
 25 30  1  0  0  0  0
 25 61  1  0  0  0  0
 25 62  1  0  0  0  0
 26 63  1  0  0  0  0
 26 64  1  0  0  0  0
 26 65  1  0  0  0  0
 27 66  1  0  0  0  0
 27 67  1  0  0  0  0
 28 31  1  0  0  0  0
 28 68  1  0  0  0  0
 28 69  1  0  0  0  0
 29 70  1  0  0  0  0
 30 71  1  0  0  0  0
 31 32  1  0  0  0  0
 31 72  1  0  0  0  0
 31 73  1  0  0  0  0
 32 33  2  0  0  0  0
 32 34  1  0  0  0  0
M  CHG  1  34  -1
M  END
>  <Code-name>
178

>  <Compound>
Lucidenic acid O

>  <Specie>
Ganoderma lucidum

>  <Reference>
MORADALI et al., 2007

>  <Organism>
Cytotoxic activity

>  <Smiles>
C[C@@](C1)([C@H](C[C@@H]2O)C(CCC(O)=O)=C)[C@]2(C)C([C@H](C[C@@H]([C@]2(C)CO)[C@]3(C)CC[C@@H]2O)O)=C3C1=O

>  <MMFF94 Energy>
97.109

>  <Total Molweight>
476.608

>  <Molweight>
476.608

>  <Monoisotopic Mass>
476.277405

>  <cLogP>
2.7456

>  <cLogS>
-3.742

>  <H-Acceptors>
7

>  <H-Donors>
5

>  <Total Surface Area>
335.68

>  <Relative PSA>
0.27282

>  <Polar Surface Area>
135.29

>  <Druglikeness>
-5.4771

>  <Mutagenic>
none

>  <Tumorigenic>
none

>  <Reproductive Effective>
low

>  <Irritant>
none

>  <Nasty Functions>


>  <Shape Index>
0.44118

>  <Molecular Flexibility>
0.32965

>  <Molecular Complexity>
1.0478

>  <Fragments>
1

>  <Non-H Atoms>
34

>  <Non-C/H Atoms>
7

>  <Metal-Atoms>
0

>  <Electronegative Atoms>
7

>  <Stereo Centers>
9

>  <Rotatable Bonds>
5

>  <Rings Closures>
4

>  <Small Rings>
4

>  <Aromatic Rings>
0

>  <Aromatic Atoms>
0

>  <sp3-Atoms>
26

>  <Symmetric atoms>
0

>  <Amides>
0

>  <Amines>
0

>  <Alkyl-Amines>
0

>  <Aromatic Amines>
0

>  <Aromatic Nitrogens>
0

>  <Basic Nitrogens>
0

>  <Acidic Oxygens>
1

>  <Stereo Configuration>
this enantiomer

> <Gold.Version>
5.8.1

> <Gold.Id.Protein>
ID_2|Prot_COX2_5IKQ_Alig|mol2

> <Gold.Goldscore.Fitness>
-41.2294

> <Gold.Goldscore.Internal.Vdw>
-49.9196

> <Gold.Goldscore.Internal.Torsion>
-5.1778

> <Gold.Goldscore.External.Vdw>
-11.5584

> <Gold.Goldscore.Internal.HBond>
0.0000

> <Gold.Goldscore.External.HBond>
0.9361

> <Gold.Goldscore.Internal.Correction>
-28.8248

> <Gold.Goldscore.Hbonds>
donor molecule, donor type, donor heavy atom, donor atom, acceptor molecule, acceptor atom, score
      P1  H  8031  8036       L1     1  0.38
      L1  H    23    59       P1  5176  0.09

> <Gold.Goldscore.Internal.Vdw.Weighted>
-49.9196

> <Gold.Goldscore.Internal.Torsion.Weighted>
-5.1778

> <Gold.Goldscore.External.Vdw.Weighted>
-15.8928

> <Gold.Goldscore.Internal.HBond.Weighted>
0.0000

> <Gold.Goldscore.External.HBond.Weighted>
0.9361

> <Gold.Goldscore.Internal.Correction.Weighted>
-28.8248

> <Gold.Protein.RotatedTorsions>
[ 5077 5068 5067 5065 ] final -145.82 input  179.94 | X-H torsion
[ 5157 5152 5151 5148 ] final -102.57 input -179.92 | X-H torsion
[ 5185 5176 5175 5173 ] final    2.35 input -179.99 | X-H torsion
[ 5712 5703 5702 5700 ] final   81.63 input  180.00 | X-H torsion
[ 8036 8031 8030 8027 ] final -134.59 input -179.94 | X-H torsion
[ 2749 2745 2743 2740 ] final   67.56 input  -60.05 | X-H torsion
[ 1366 1361 1360 1357 ] final -111.35 input  -60.09 | X-H torsion
[ 2556 2551 2550 2547 ] final  137.87 input   59.97 | X-H torsion

> <Gold.Protein.ActiveResidues>
 PRO86   VAL89   HIS90   LEU93   THR94   ILE112  MET113  TYR115  VAL116  LEU117 
 THR118  SER119  ARG120  SER121  LEU123  ILE124  GLN192  SER194  PHE198  PHE201 
 ALA202  GLN203  PHE205  THR206  PHE209  PHE210  VAL228  ILE341  ILE343  VAL344 
 ILE345  GLU346  ASP347  TYR348  VAL349  GLN350  HIS351  LEU352  SER353  GLY354 
 TYR355  PHE357  LEU359  LYS360  GLU380  PHE381  ASN382  THR383  LEU384  TYR385 
 HIS386  TRP387  LEU390  VAL434  LEU507  ARG513  ALA516  ILE517  PHE518  GLY519 
 GLU520  THR521  MET522  VAL523  GLU524  VAL525  GLY526  ALA527  PRO528  PHE529 
 SER530  LEU531  LYS532  GLY533  LEU534  MET535  COH609 

> <Gold.Protein.RotatedAtoms>
   18.4116    7.3863    3.3886 H   0  0  0  0  0  0  0  0  0  0  0  0  # atno 1366 bound_to 1361
    4.8186   -9.7162    6.6202 H   0  0  0  0  0  0  0  0  0  0  0  0  # atno 2556 bound_to 2551
   -3.9911    0.2363    0.0841 H   0  0  0  0  0  0  0  0  0  0  0  0  # atno 2749 bound_to 2745
    2.1577   -1.9734    3.7640 H   0  0  0  0  0  0  0  0  0  0  0  0  # atno 5077 bound_to 5068
   11.4733   -1.7123    9.2923 H   0  0  0  0  0  0  0  0  0  0  0  0  # atno 5157 bound_to 5152
   16.0205   -1.0959    4.6930 H   0  0  0  0  0  0  0  0  0  0  0  0  # atno 5185 bound_to 5176
    2.8485   -0.8750    2.5137 H   0  0  0  0  0  0  0  0  0  0  0  0  # atno 5712 bound_to 5703
    6.1938    4.1564    3.6925 H   0  0  0  0  0  0  0  0  0  0  0  0  # atno 8036 bound_to 8031
    0.7774   -1.3857    3.8674 LP  0  0  0  0  0  0  0  0  0  0  0  0  # atno 8267 bound_to 5068
    1.1231   -2.9198    4.3073 LP  0  0  0  0  0  0  0  0  0  0  0  0  # atno 8268 bound_to 5068
   12.9753   -1.6635    9.2097 LP  0  0  0  0  0  0  0  0  0  0  0  0  # atno 8279 bound_to 5152
   12.1360   -3.0633    9.2641 LP  0  0  0  0  0  0  0  0  0  0  0  0  # atno 8280 bound_to 5152
   16.4929    0.2706    5.1032 LP  0  0  0  0  0  0  0  0  0  0  0  0  # atno 8281 bound_to 5176
   14.9260   -0.0711    4.7953 LP  0  0  0  0  0  0  0  0  0  0  0  0  # atno 8282 bound_to 5176
    1.4405   -0.5510    2.9279 LP  0  0  0  0  0  0  0  0  0  0  0  0  # atno 8283 bound_to 5703
    2.5122    0.5888    2.4600 LP  0  0  0  0  0  0  0  0  0  0  0  0  # atno 8284 bound_to 5703
    4.7767    3.9197    3.2500 LP  0  0  0  0  0  0  0  0  0  0  0  0  # atno 8309 bound_to 8031
    5.4038    5.4133    3.4560 LP  0  0  0  0  0  0  0  0  0  0  0  0  # atno 8310 bound_to 8031
   -3.7006   -0.1685    1.5036 LP  0  0  0  0  0  0  0  0  0  0  0  0  # atno 8323 bound_to 2745
   -2.7304   -0.5674    0.2521 LP  0  0  0  0  0  0  0  0  0  0  0  0  # atno 8324 bound_to 2745
   18.6738    6.4786    2.2176 LP  0  0  0  0  0  0  0  0  0  0  0  0  # atno 8335 bound_to 1361
   17.4993    7.6132    2.2138 LP  0  0  0  0  0  0  0  0  0  0  0  0  # atno 8336 bound_to 1361
    5.2457  -10.0075    8.0333 LP  0  0  0  0  0  0  0  0  0  0  0  0  # atno 8342 bound_to 2551
    4.5202   -8.6111    7.5969 LP  0  0  0  0  0  0  0  0  0  0  0  0  # atno 8343 bound_to 2551

