
179|LMW3_p|sdf|179|dock1
  -GOLD-   61022 2 73D 1   1.00000     0.00000

 74 78  0  0  0  0  0  0  0  0  1 V2000
    9.0415    3.6048    2.9902 O   0  0  0  0  0  0  0  0  0  0  0  0
    9.1425    2.3842    3.1295 C   0  0  0  0  0  0  0  0  0  0  0  0
   10.1607    1.7821    4.0932 C   0  0  0  0  0  0  0  0  0  0  0  0
    8.2157    1.4916    2.3191 C   0  0  0  0  0  0  0  0  0  0  0  0
   10.2404    0.4290    4.1908 C   0  0  0  0  0  0  0  0  0  0  0  0
   11.0393    2.7682    4.9185 C   0  0  1  0  0  0  0  0  0  0  0  0
    8.7453    0.0693    2.1679 C   0  0  1  0  0  0  0  0  0  0  0  0
    9.1377   -0.4618    3.5963 C   0  0  1  0  0  0  0  0  0  0  0  0
   11.3348   -0.2356    4.9826 C   0  0  1  0  0  0  0  0  0  0  0  0
   11.9462    2.0225    5.9916 C   0  0  1  0  0  0  0  0  0  0  0  0
   11.9466    3.5457    3.9231 C   0  0  0  0  0  0  0  0  0  0  0  0
   10.0818    3.7287    5.6905 C   0  0  0  0  0  0  0  0  0  0  0  0
    7.6829   -0.9927    1.7177 C   0  0  1  0  0  0  0  0  0  0  0  0
    9.9662    0.1029    1.2004 C   0  0  0  0  0  0  0  0  0  0  0  0
    9.3954   -1.9555    3.2590 C   0  0  2  0  0  0  0  0  0  0  0  0
    7.9905   -0.4030    4.6622 C   0  0  0  0  0  0  0  0  0  0  0  0
   11.9517   -1.2405    4.1821 O   0  0  0  0  0  0  0  0  0  0  0  0
   12.4642    0.7085    5.3882 C   0  0  0  0  0  0  0  0  0  0  0  0
   13.1071    2.9068    6.6262 C   0  0  0  0  0  0  0  0  0  0  0  0
   13.0042    4.4371    4.5736 C   0  0  0  0  0  0  0  0  0  0  0  0
    7.1605   -1.1038    0.2475 C   0  0  2  0  0  0  0  0  0  0  0  0
    8.3031   -2.3238    2.2355 C   0  0  0  0  0  0  0  0  0  0  0  0
    9.3113   -2.8119    4.3914 O   0  0  0  0  0  0  0  0  0  0  0  0
   13.9047    3.6703    5.5370 C   0  0  2  0  0  0  0  0  0  0  0  0
   12.5371    3.9306    7.6420 C   0  0  0  0  0  0  0  0  0  0  0  0
   14.0873    2.0372    7.4599 C   0  0  0  0  0  0  0  0  0  0  0  0
    7.2221    0.1596   -0.4280 O   0  0  0  0  0  0  0  0  0  0  0  0
    5.7073   -1.5736    0.1422 C   0  0  0  0  0  0  0  0  0  0  0  0
    8.0563   -2.0742   -0.5758 C   0  0  0  0  0  0  0  0  0  0  0  0
   14.7088    2.7627    4.7837 O   0  0  0  0  0  0  0  0  0  0  0  0
    6.0092    0.4990   -0.9433 C   0  0  0  0  0  0  0  0  0  0  0  0
    4.9413   -0.4024   -0.4189 C   0  0  0  0  0  0  0  0  0  0  0  0
    7.8679   -1.8942   -1.9734 O   0  0  0  0  0  0  0  0  0  0  0  0
    5.8281    1.4508   -1.6844 O   0  0  0  0  0  0  0  0  0  0  0  0
    8.0972    1.9174    1.3446 H   0  0  0  0  0  0  0  0  0  0  0  0
    7.2849    1.4339    2.8437 H   0  0  0  0  0  0  0  0  0  0  0  0
   10.8582   -0.6152    5.8621 H   0  0  0  0  0  0  0  0  0  0  0  0
   11.3211    1.8098    6.8335 H   0  0  0  0  0  0  0  0  0  0  0  0
   11.3192    4.1642    3.3159 H   0  0  0  0  0  0  0  0  0  0  0  0
   12.4815    2.8055    3.3655 H   0  0  0  0  0  0  0  0  0  0  0  0
   10.2172    3.5966    6.7436 H   0  0  0  0  0  0  0  0  0  0  0  0
    9.0680    3.5065    5.4305 H   0  0  0  0  0  0  0  0  0  0  0  0
   10.3039    4.7416    5.4266 H   0  0  0  0  0  0  0  0  0  0  0  0
    6.7440   -0.6779    2.1230 H   0  0  0  0  0  0  0  0  0  0  0  0
   10.3836   -0.8789    1.1186 H   0  0  0  0  0  0  0  0  0  0  0  0
   10.7062    0.7744    1.5832 H   0  0  0  0  0  0  0  0  0  0  0  0
    9.6472    0.4364    0.2350 H   0  0  0  0  0  0  0  0  0  0  0  0
   10.3902   -2.0843    2.8867 H   0  0  0  0  0  0  0  0  0  0  0  0
    7.7260    0.6174    4.8455 H   0  0  0  0  0  0  0  0  0  0  0  0
    8.3264   -0.8535    5.5728 H   0  0  0  0  0  0  0  0  0  0  0  0
    7.1360   -0.9328    4.2962 H   0  0  0  0  0  0  0  0  0  0  0  0
   12.3542   -0.8297    3.4009 H   0  0  0  0  0  0  0  0  0  0  0  0
   13.0488    0.9362    4.5214 H   0  0  0  0  0  0  0  0  0  0  0  0
   13.0466    0.2146    6.1377 H   0  0  0  0  0  0  0  0  0  0  0  0
   12.5098    5.2173    5.1138 H   0  0  0  0  0  0  0  0  0  0  0  0
   13.6228    4.8287    3.7933 H   0  0  0  0  0  0  0  0  0  0  0  0
    8.7336   -2.8680    1.4210 H   0  0  0  0  0  0  0  0  0  0  0  0
    7.5536   -2.9392    2.6876 H   0  0  0  0  0  0  0  0  0  0  0  0
    9.7280   -3.6631    4.1847 H   0  0  0  0  0  0  0  0  0  0  0  0
   14.5175    4.3786    6.0544 H   0  0  0  0  0  0  0  0  0  0  0  0
   13.3381    4.3469    8.2164 H   0  0  0  0  0  0  0  0  0  0  0  0
   11.8477    3.4383    8.2957 H   0  0  0  0  0  0  0  0  0  0  0  0
   12.0322    4.7129    7.1147 H   0  0  0  0  0  0  0  0  0  0  0  0
   13.5302    1.3950    8.1096 H   0  0  0  0  0  0  0  0  0  0  0  0
   14.7200    2.6728    8.0435 H   0  0  0  0  0  0  0  0  0  0  0  0
   14.6871    1.4447    6.8011 H   0  0  0  0  0  0  0  0  0  0  0  0
    5.3297   -1.8386    1.1077 H   0  0  0  0  0  0  0  0  0  0  0  0
    5.6158   -2.4402   -0.4786 H   0  0  0  0  0  0  0  0  0  0  0  0
    7.8064   -3.0821   -0.3177 H   0  0  0  0  0  0  0  0  0  0  0  0
    9.0800   -1.8656   -0.3444 H   0  0  0  0  0  0  0  0  0  0  0  0
   15.5353    3.2003    4.5261 H   0  0  0  0  0  0  0  0  0  0  0  0
    4.3730    0.0840    0.3461 H   0  0  0  0  0  0  0  0  0  0  0  0
    4.2350   -0.6896   -1.1696 H   0  0  0  0  0  0  0  0  0  0  0  0
    6.9540   -2.1192   -2.2080 H   0  0  0  0  0  0  0  0  0  0  0  0
  1  2  2  0  0  0  0
  2  3  1  0  0  0  0
  2  4  1  0  0  0  0
  3  5  2  0  0  0  0
  3  6  1  0  0  0  0
  4  7  1  0  0  0  0
  4 35  1  0  0  0  0
  4 36  1  0  0  0  0
  5  8  1  0  0  0  0
  5  9  1  0  0  0  0
  6 10  1  0  0  0  0
  6 11  1  0  0  0  0
  6 12  1  0  0  0  0
  7 13  1  0  0  0  0
  7 14  1  0  0  0  0
  7  8  1  0  0  0  0
  8 15  1  0  0  0  0
  8 16  1  0  0  0  0
  9 17  1  0  0  0  0
  9 18  1  0  0  0  0
  9 37  1  0  0  0  0
 10 19  1  0  0  0  0
 10 18  1  0  0  0  0
 10 38  1  0  0  0  0
 11 20  1  0  0  0  0
 11 39  1  0  0  0  0
 11 40  1  0  0  0  0
 12 41  1  0  0  0  0
 12 42  1  0  0  0  0
 12 43  1  0  0  0  0
 13 21  1  0  0  0  0
 13 22  1  0  0  0  0
 13 44  1  0  0  0  0
 14 45  1  0  0  0  0
 14 46  1  0  0  0  0
 14 47  1  0  0  0  0
 15 23  1  0  0  0  0
 15 22  1  0  0  0  0
 15 48  1  0  0  0  0
 16 49  1  0  0  0  0
 16 50  1  0  0  0  0
 16 51  1  0  0  0  0
 17 52  1  0  0  0  0
 18 53  1  0  0  0  0
 18 54  1  0  0  0  0
 19 24  1  0  0  0  0
 19 25  1  0  0  0  0
 19 26  1  0  0  0  0
 20 24  1  0  0  0  0
 20 55  1  0  0  0  0
 20 56  1  0  0  0  0
 21 27  1  0  0  0  0
 21 28  1  0  0  0  0
 21 29  1  0  0  0  0
 22 57  1  0  0  0  0
 22 58  1  0  0  0  0
 23 59  1  0  0  0  0
 24 30  1  0  0  0  0
 24 60  1  0  0  0  0
 25 61  1  0  0  0  0
 25 62  1  0  0  0  0
 25 63  1  0  0  0  0
 26 64  1  0  0  0  0
 26 65  1  0  0  0  0
 26 66  1  0  0  0  0
 27 31  1  0  0  0  0
 28 32  1  0  0  0  0
 28 67  1  0  0  0  0
 28 68  1  0  0  0  0
 29 33  1  0  0  0  0
 29 69  1  0  0  0  0
 29 70  1  0  0  0  0
 30 71  1  0  0  0  0
 31 34  2  0  0  0  0
 31 32  1  0  0  0  0
 32 72  1  0  0  0  0
 32 73  1  0  0  0  0
 33 74  1  0  0  0  0
M  END
>  <Code-name>
179

>  <Compound>
Lactone LucidÃªnica

>  <Specie>
Ganoderma lucidum

>  <Reference>
Mizushina, 1999

>  <Organism>
N/A

>  <Smiles>
C[C@@](C1)([C@H](C[C@@H]2O)[C@@](CO)(CC3)OC3=O)[C@]2(C)C([C@H](C[C@@H](C2(C)C)[C@@]3(C)CC[C@@H]2O)O)=C3C1=O

>  <MMFF94 Energy>
138.96

>  <Total Molweight>
476.608

>  <Molweight>
476.608

>  <Monoisotopic Mass>
476.277405

>  <cLogP>
1.8631

>  <cLogS>
-3.87

>  <H-Acceptors>
7

>  <H-Donors>
4

>  <Total Surface Area>
325.75

>  <Relative PSA>
0.27162

>  <Polar Surface Area>
124.29

>  <Druglikeness>
-6.7877

>  <Mutagenic>
none

>  <Tumorigenic>
none

>  <Reproductive Effective>
none

>  <Irritant>
none

>  <Nasty Functions>


>  <Shape Index>
0.41176

>  <Molecular Flexibility>
0.16948

>  <Molecular Complexity>
1.0695

>  <Fragments>
1

>  <Non-H Atoms>
34

>  <Non-C/H Atoms>
7

>  <Metal-Atoms>
0

>  <Electronegative Atoms>
7

>  <Stereo Centers>
9

>  <Rotatable Bonds>
2

>  <Rings Closures>
5

>  <Small Rings>
5

>  <Aromatic Rings>
0

>  <Aromatic Atoms>
0

>  <sp3-Atoms>
28

>  <Symmetric atoms>
1

>  <Amides>
0

>  <Amines>
0

>  <Alkyl-Amines>
0

>  <Aromatic Amines>
0

>  <Aromatic Nitrogens>
0

>  <Basic Nitrogens>
0

>  <Acidic Oxygens>
0

>  <Stereo Configuration>
this enantiomer

> <Gold.Version>
5.8.1

> <Gold.Id.Protein>
ID_2|Prot_COX2_5IKQ_Alig|mol2

> <Gold.Goldscore.Fitness>
-89.2824

> <Gold.Goldscore.Internal.Vdw>
-40.1614

> <Gold.Goldscore.Internal.Torsion>
-8.1024

> <Gold.Goldscore.External.Vdw>
-54.7620

> <Gold.Goldscore.Internal.HBond>
0.0000

> <Gold.Goldscore.External.HBond>
2.4741

> <Gold.Goldscore.Internal.Correction>
-31.8050

> <Gold.Goldscore.Hbonds>
donor molecule, donor type, donor heavy atom, donor atom, acceptor molecule, acceptor atom, score
      P1  H  1374  1386       L1    30  0.03
      P1  H  1377  1389       L1    30  0.05
      P1  H  5176  5185       L1    30  0.99

> <Gold.Goldscore.Internal.Vdw.Weighted>
-40.1614

> <Gold.Goldscore.Internal.Torsion.Weighted>
-8.1024

> <Gold.Goldscore.External.Vdw.Weighted>
-75.2978

> <Gold.Goldscore.Internal.HBond.Weighted>
0.0000

> <Gold.Goldscore.External.HBond.Weighted>
2.4741

> <Gold.Goldscore.Internal.Correction.Weighted>
-31.8050

> <Gold.Protein.RotatedTorsions>
[ 5077 5068 5067 5065 ] final  137.88 input  179.94 | X-H torsion
[ 5157 5152 5151 5148 ] final -160.12 input -179.92 | X-H torsion
[ 5185 5176 5175 5173 ] final  172.85 input -179.99 | X-H torsion
[ 5712 5703 5702 5700 ] final   98.12 input  180.00 | X-H torsion
[ 8036 8031 8030 8027 ] final -170.28 input -179.94 | X-H torsion
[ 2749 2745 2743 2740 ] final   18.36 input  -60.05 | X-H torsion
[ 1366 1361 1360 1357 ] final   27.94 input  -60.09 | X-H torsion
[ 2556 2551 2550 2547 ] final -159.73 input   59.97 | X-H torsion

> <Gold.Protein.ActiveResidues>
 PRO86   VAL89   HIS90   LEU93   THR94   ILE112  MET113  TYR115  VAL116  LEU117 
 THR118  SER119  ARG120  SER121  LEU123  ILE124  GLN192  SER194  PHE198  PHE201 
 ALA202  GLN203  PHE205  THR206  PHE209  PHE210  VAL228  ILE341  ILE343  VAL344 
 ILE345  GLU346  ASP347  TYR348  VAL349  GLN350  HIS351  LEU352  SER353  GLY354 
 TYR355  PHE357  LEU359  LYS360  GLU380  PHE381  ASN382  THR383  LEU384  TYR385 
 HIS386  TRP387  LEU390  VAL434  LEU507  ARG513  ALA516  ILE517  PHE518  GLY519 
 GLU520  THR521  MET522  VAL523  GLU524  VAL525  GLY526  ALA527  PRO528  PHE529 
 SER530  LEU531  LYS532  GLY533  LEU534  MET535  COH609 

> <Gold.Protein.RotatedAtoms>
   17.7156    7.4035    2.0804 H   0  0  0  0  0  0  0  0  0  0  0  0  # atno 1366 bound_to 1361
    4.5156   -8.9869    6.8366 H   0  0  0  0  0  0  0  0  0  0  0  0  # atno 2556 bound_to 2551
   -4.1735    0.2594    0.7155 H   0  0  0  0  0  0  0  0  0  0  0  0  # atno 2749 bound_to 2745
    1.4242   -1.3316    3.7319 H   0  0  0  0  0  0  0  0  0  0  0  0  # atno 5077 bound_to 5068
   12.1290   -1.3291    9.2412 H   0  0  0  0  0  0  0  0  0  0  0  0  # atno 5157 bound_to 5152
   15.5027    0.3460    5.0382 H   0  0  0  0  0  0  0  0  0  0  0  0  # atno 5185 bound_to 5176
    2.9725   -0.6961    2.4532 H   0  0  0  0  0  0  0  0  0  0  0  0  # atno 5712 bound_to 5703
    5.8893    3.7955    3.5898 H   0  0  0  0  0  0  0  0  0  0  0  0  # atno 8036 bound_to 8031
    0.5964   -2.4589    4.2843 LP  0  0  0  0  0  0  0  0  0  0  0  0  # atno 8267 bound_to 5068
    2.1825   -2.6152    3.9288 LP  0  0  0  0  0  0  0  0  0  0  0  0  # atno 8268 bound_to 5068
   12.9769   -2.5718    9.1986 LP  0  0  0  0  0  0  0  0  0  0  0  0  # atno 8279 bound_to 5152
   11.3502   -2.6134    9.3363 LP  0  0  0  0  0  0  0  0  0  0  0  0  # atno 8280 bound_to 5152
   15.2814   -1.0609    4.5583 LP  0  0  0  0  0  0  0  0  0  0  0  0  # atno 8281 bound_to 5176
   16.7591   -0.4709    4.9256 LP  0  0  0  0  0  0  0  0  0  0  0  0  # atno 8282 bound_to 5176
    1.5506   -0.7981    2.9292 LP  0  0  0  0  0  0  0  0  0  0  0  0  # atno 8283 bound_to 5703
    2.2533    0.6212    2.5313 LP  0  0  0  0  0  0  0  0  0  0  0  0  # atno 8284 bound_to 5703
    4.6070    4.4690    3.1871 LP  0  0  0  0  0  0  0  0  0  0  0  0  # atno 8309 bound_to 8031
    5.9389    5.2970    3.6422 LP  0  0  0  0  0  0  0  0  0  0  0  0  # atno 8310 bound_to 8031
   -3.0331   -0.5290    1.2995 LP  0  0  0  0  0  0  0  0  0  0  0  0  # atno 8323 bound_to 2745
   -3.1794   -0.2346   -0.3000 LP  0  0  0  0  0  0  0  0  0  0  0  0  # atno 8324 bound_to 2745
   18.1823    7.5963    3.4978 LP  0  0  0  0  0  0  0  0  0  0  0  0  # atno 8335 bound_to 1361
   18.8233    6.4749    2.4986 LP  0  0  0  0  0  0  0  0  0  0  0  0  # atno 8336 bound_to 1361
    5.2183  -10.2915    7.0983 LP  0  0  0  0  0  0  0  0  0  0  0  0  # atno 8342 bound_to 2551
    4.9101   -9.1997    8.2730 LP  0  0  0  0  0  0  0  0  0  0  0  0  # atno 8343 bound_to 2551

