
180|LMW3_p|sdf|180|dock7
  -GOLD-   61022 2123D 1   1.00000     0.00000

 77 80  0  0  0  0  0  0  0  0  1 V2000
    7.1833   -0.9337    4.0158 O   0  0  0  0  0  0  0  0  0  0  0  0
    7.3022   -0.6381    2.6034 C   0  0  1  0  0  0  0  0  0  0  0  0
    7.5043    0.8978    2.3831 C   0  0  1  0  0  0  0  0  0  0  0  0
    8.5218   -1.4661    2.0752 C   0  0  2  0  0  0  0  0  0  0  0  0
    6.0102   -1.1497    1.9283 C   0  0  0  0  0  0  0  0  0  0  0  0
    8.8960    1.3863    2.9665 C   0  0  2  0  0  0  0  0  0  0  0  0
    7.4834    1.1698    0.8428 C   0  0  0  0  0  0  0  0  0  0  0  0
    6.3545    1.7269    3.0169 C   0  0  0  0  0  0  0  0  0  0  0  0
    8.4909   -2.7625    2.6766 O   0  0  0  0  0  0  0  0  0  0  0  0
    9.8583   -0.8742    2.3753 C   0  0  0  0  0  0  0  0  0  0  0  0
    5.9426   -0.8239    0.4368 C   0  0  2  0  0  0  0  0  0  0  0  0
   10.0416    0.3889    2.7873 C   0  0  0  0  0  0  0  0  0  0  0  0
    8.8822    1.8690    4.4454 C   0  0  0  0  0  0  0  0  0  0  0  0
    6.2264    0.6468    0.1431 C   0  0  0  0  0  0  0  0  0  0  0  0
    4.6402   -1.1340   -0.0522 O   0  0  0  0  0  0  0  0  0  0  0  0
   11.3756    0.9630    3.1913 C   0  0  1  0  0  0  0  0  0  0  0  0
   10.2587    2.3724    4.9350 C   0  0  0  0  0  0  0  0  0  0  0  0
   11.3757    1.3395    4.6967 C   0  0  2  0  0  0  0  0  0  0  0  0
   12.6930    0.2023    3.0251 C   0  0  0  0  0  0  0  0  0  0  0  0
   12.8162    1.9160    4.8043 C   0  0  2  0  0  0  0  0  0  0  0  0
   11.1432    0.1164    5.6166 C   0  0  0  0  0  0  0  0  0  0  0  0
   13.6706    0.9248    3.9729 C   0  0  0  0  0  0  0  0  0  0  0  0
   13.3733    2.3133    6.1952 C   0  0  1  0  0  0  0  0  0  0  0  0
   14.7859    2.8484    6.2222 C   0  0  0  0  0  0  0  0  0  0  0  0
   12.4629    3.3652    6.8475 C   0  0  0  0  0  0  0  0  0  0  0  0
   15.4410    3.2858    5.1335 C   0  0  0  0  0  0  0  0  0  0  0  0
   16.8593    3.8157    5.1605 C   0  0  1  0  0  0  0  0  0  0  0  0
   17.8855    2.6716    5.3910 C   0  0  0  0  0  0  0  0  0  0  0  0
   17.1118    4.6366    3.8918 C   0  0  0  0  0  0  0  0  0  0  0  0
   19.3136    3.2156    5.5119 C   0  0  0  0  0  0  0  0  0  0  0  0
   17.8499    1.5692    4.3269 C   0  0  0  0  0  0  0  0  0  0  0  0
    8.0669   -0.9665    4.4147 H   0  0  0  0  0  0  0  0  0  0  0  0
    8.4163   -1.4866    1.0106 H   0  0  0  0  0  0  0  0  0  0  0  0
    5.1706   -0.6977    2.4138 H   0  0  0  0  0  0  0  0  0  0  0  0
    6.0022   -2.2155    2.0223 H   0  0  0  0  0  0  0  0  0  0  0  0
    9.0771    2.2435    2.3523 H   0  0  0  0  0  0  0  0  0  0  0  0
    8.3363    0.6953    0.4042 H   0  0  0  0  0  0  0  0  0  0  0  0
    7.4952    2.2318    0.7124 H   0  0  0  0  0  0  0  0  0  0  0  0
    5.4302    1.4796    2.5378 H   0  0  0  0  0  0  0  0  0  0  0  0
    6.5545    2.7702    2.8888 H   0  0  0  0  0  0  0  0  0  0  0  0
    6.2863    1.5023    4.0609 H   0  0  0  0  0  0  0  0  0  0  0  0
    9.2271   -3.2946    2.3361 H   0  0  0  0  0  0  0  0  0  0  0  0
   10.6911   -1.4724    2.2590 H   0  0  0  0  0  0  0  0  0  0  0  0
    6.6949   -1.4102   -0.0481 H   0  0  0  0  0  0  0  0  0  0  0  0
    8.5782    1.0526    5.0667 H   0  0  0  0  0  0  0  0  0  0  0  0
    8.2030    2.6937    4.5041 H   0  0  0  0  0  0  0  0  0  0  0  0
    6.3511    0.7649   -0.9130 H   0  0  0  0  0  0  0  0  0  0  0  0
    5.3971    1.2112    0.5156 H   0  0  0  0  0  0  0  0  0  0  0  0
    4.5685   -0.8573   -0.9792 H   0  0  0  0  0  0  0  0  0  0  0  0
   11.4051    1.7446    2.4612 H   0  0  0  0  0  0  0  0  0  0  0  0
   10.1974    2.5776    5.9833 H   0  0  0  0  0  0  0  0  0  0  0  0
   10.5025    3.2533    4.3787 H   0  0  0  0  0  0  0  0  0  0  0  0
   13.0367    0.2556    2.0132 H   0  0  0  0  0  0  0  0  0  0  0  0
   12.5960   -0.8387    3.2529 H   0  0  0  0  0  0  0  0  0  0  0  0
   12.8369    2.9136    4.4181 H   0  0  0  0  0  0  0  0  0  0  0  0
   11.0576    0.4447    6.6315 H   0  0  0  0  0  0  0  0  0  0  0  0
   11.9690   -0.5582    5.5285 H   0  0  0  0  0  0  0  0  0  0  0  0
   10.2424   -0.3824    5.3259 H   0  0  0  0  0  0  0  0  0  0  0  0
   14.4098    1.4548    3.4094 H   0  0  0  0  0  0  0  0  0  0  0  0
   14.1858    0.2308    4.6037 H   0  0  0  0  0  0  0  0  0  0  0  0
   13.3934    1.3884    6.7328 H   0  0  0  0  0  0  0  0  0  0  0  0
   15.2763    2.8798    7.1297 H   0  0  0  0  0  0  0  0  0  0  0  0
   11.6720    2.8743    7.3752 H   0  0  0  0  0  0  0  0  0  0  0  0
   12.0480    3.9968    6.0900 H   0  0  0  0  0  0  0  0  0  0  0  0
   13.0346    3.9568    7.5315 H   0  0  0  0  0  0  0  0  0  0  0  0
   14.9491    3.2591    4.2266 H   0  0  0  0  0  0  0  0  0  0  0  0
   16.9924    4.4732    5.9940 H   0  0  0  0  0  0  0  0  0  0  0  0
   17.5856    2.2221    6.3145 H   0  0  0  0  0  0  0  0  0  0  0  0
   17.0593    3.9961    3.0362 H   0  0  0  0  0  0  0  0  0  0  0  0
   18.0825    5.0837    3.9436 H   0  0  0  0  0  0  0  0  0  0  0  0
   16.3699    5.4032    3.8095 H   0  0  0  0  0  0  0  0  0  0  0  0
   19.6496    3.5517    4.5532 H   0  0  0  0  0  0  0  0  0  0  0  0
   19.9616    2.4410    5.8655 H   0  0  0  0  0  0  0  0  0  0  0  0
   19.3264    4.0337    6.2014 H   0  0  0  0  0  0  0  0  0  0  0  0
   16.8492    1.2045    4.2246 H   0  0  0  0  0  0  0  0  0  0  0  0
   18.4932    0.7670    4.6228 H   0  0  0  0  0  0  0  0  0  0  0  0
   18.1823    1.9663    3.3907 H   0  0  0  0  0  0  0  0  0  0  0  0
  1 32  1  0  0  0  0
  2  1  1  0  0  0  0
  2  3  1  0  0  0  0
  2  4  1  0  0  0  0
  2  5  1  0  0  0  0
  3  6  1  0  0  0  0
  3  7  1  0  0  0  0
  3  8  1  0  0  0  0
  4  9  1  0  0  0  0
  4 10  1  0  0  0  0
  4 33  1  0  0  0  0
  5 11  1  0  0  0  0
  5 34  1  0  0  0  0
  5 35  1  0  0  0  0
  6 12  1  0  0  0  0
  6 13  1  0  0  0  0
  6 36  1  0  0  0  0
  7 14  1  0  0  0  0
  7 37  1  0  0  0  0
  7 38  1  0  0  0  0
  8 39  1  0  0  0  0
  8 40  1  0  0  0  0
  8 41  1  0  0  0  0
  9 42  1  0  0  0  0
 10 12  2  0  0  0  0
 10 43  1  0  0  0  0
 11 15  1  0  0  0  0
 11 14  1  0  0  0  0
 11 44  1  0  0  0  0
 12 16  1  0  0  0  0
 13 17  1  0  0  0  0
 13 45  1  0  0  0  0
 13 46  1  0  0  0  0
 14 47  1  0  0  0  0
 14 48  1  0  0  0  0
 15 49  1  0  0  0  0
 16 18  1  0  0  0  0
 16 19  1  0  0  0  0
 16 50  1  0  0  0  0
 17 18  1  0  0  0  0
 17 51  1  0  0  0  0
 17 52  1  0  0  0  0
 18 20  1  0  0  0  0
 18 21  1  0  0  0  0
 19 22  1  0  0  0  0
 19 53  1  0  0  0  0
 19 54  1  0  0  0  0
 20 23  1  0  0  0  0
 20 22  1  0  0  0  0
 20 55  1  0  0  0  0
 21 56  1  0  0  0  0
 21 57  1  0  0  0  0
 21 58  1  0  0  0  0
 22 59  1  0  0  0  0
 22 60  1  0  0  0  0
 23 24  1  0  0  0  0
 23 25  1  0  0  0  0
 23 61  1  0  0  0  0
 24 26  2  0  0  0  0
 24 62  1  0  0  0  0
 25 63  1  0  0  0  0
 25 64  1  0  0  0  0
 25 65  1  0  0  0  0
 26 27  1  0  0  0  0
 26 66  1  0  0  0  0
 27 28  1  0  0  0  0
 27 29  1  0  0  0  0
 27 67  1  0  0  0  0
 28 30  1  0  0  0  0
 28 31  1  0  0  0  0
 28 68  1  0  0  0  0
 29 69  1  0  0  0  0
 29 70  1  0  0  0  0
 29 71  1  0  0  0  0
 30 72  1  0  0  0  0
 30 73  1  0  0  0  0
 30 74  1  0  0  0  0
 31 75  1  0  0  0  0
 31 76  1  0  0  0  0
 31 77  1  0  0  0  0
M  END
>  <Code-name>
180

>  <Compound>
Cerevisterol

>  <Specie>
Ganoderma lucidium

>  <Reference>
MORADALI et al., 2007

>  <Organism>
N/A

>  <Smiles>
CC(C)[C@@H](C)/C=C/[C@@H](C)[C@@H](CC1)[C@@](C)(CC[C@@H]2[C@@](C)(CC[C@@H](C3)O)[C@@]33O)[C@@H]1C2=C[C@H]3O

>  <MMFF94 Energy>
119.6

>  <Total Molweight>
430.670

>  <Molweight>
430.670

>  <Monoisotopic Mass>
430.344695

>  <cLogP>
5.4731

>  <cLogS>
-5.322

>  <H-Acceptors>
3

>  <H-Donors>
3

>  <Total Surface Area>
330.87

>  <Relative PSA>
0.11878

>  <Polar Surface Area>
60.69

>  <Druglikeness>
-0.28461

>  <Mutagenic>
none

>  <Tumorigenic>
none

>  <Reproductive Effective>
none

>  <Irritant>
none

>  <Nasty Functions>


>  <Shape Index>
0.51613

>  <Molecular Flexibility>
0.29747

>  <Molecular Complexity>
0.97874

>  <Fragments>
1

>  <Non-H Atoms>
31

>  <Non-C/H Atoms>
3

>  <Metal-Atoms>
0

>  <Electronegative Atoms>
3

>  <Stereo Centers>
10

>  <Rotatable Bonds>
4

>  <Rings Closures>
4

>  <Small Rings>
4

>  <Aromatic Rings>
0

>  <Aromatic Atoms>
0

>  <sp3-Atoms>
27

>  <Symmetric atoms>
1

>  <Amides>
0

>  <Amines>
0

>  <Alkyl-Amines>
0

>  <Aromatic Amines>
0

>  <Aromatic Nitrogens>
0

>  <Basic Nitrogens>
0

>  <Acidic Oxygens>
0

>  <Stereo Configuration>
this enantiomer

> <Gold.Version>
5.8.1

> <Gold.Id.Protein>
ID_2|Prot_COX2_5IKQ_Alig|mol2

> <Gold.Goldscore.Fitness>
-3.5474

> <Gold.Goldscore.Internal.Vdw>
-25.7647

> <Gold.Goldscore.Internal.Torsion>
-4.2916

> <Gold.Goldscore.External.Vdw>
5.2271

> <Gold.Goldscore.Internal.HBond>
0.0000

> <Gold.Goldscore.External.HBond>
0.0000

> <Gold.Goldscore.Internal.Correction>
-19.3217

> <Gold.Goldscore.Internal.Vdw.Weighted>
-25.7647

> <Gold.Goldscore.Internal.Torsion.Weighted>
-4.2916

> <Gold.Goldscore.External.Vdw.Weighted>
7.1872

> <Gold.Goldscore.Internal.HBond.Weighted>
0.0000

> <Gold.Goldscore.External.HBond.Weighted>
0.0000

> <Gold.Goldscore.Internal.Correction.Weighted>
-19.3217

> <Gold.Protein.RotatedTorsions>
[ 5077 5068 5067 5065 ] final  138.31 input  179.94 | X-H torsion
[ 5157 5152 5151 5148 ] final   -8.13 input -179.92 | X-H torsion
[ 5185 5176 5175 5173 ] final   19.97 input -179.99 | X-H torsion
[ 5712 5703 5702 5700 ] final   45.02 input  180.00 | X-H torsion
[ 8036 8031 8030 8027 ] final  -69.95 input -179.94 | X-H torsion
[ 2749 2745 2743 2740 ] final   -9.95 input  -60.05 | X-H torsion
[ 1366 1361 1360 1357 ] final   26.72 input  -60.09 | X-H torsion
[ 2556 2551 2550 2547 ] final  142.86 input   59.97 | X-H torsion

> <Gold.Protein.ActiveResidues>
 PRO86   VAL89   HIS90   LEU93   THR94   ILE112  MET113  TYR115  VAL116  LEU117 
 THR118  SER119  ARG120  SER121  LEU123  ILE124  GLN192  SER194  PHE198  PHE201 
 ALA202  GLN203  PHE205  THR206  PHE209  PHE210  VAL228  ILE341  ILE343  VAL344 
 ILE345  GLU346  ASP347  TYR348  VAL349  GLN350  HIS351  LEU352  SER353  GLY354 
 TYR355  PHE357  LEU359  LYS360  GLU380  PHE381  ASN382  THR383  LEU384  TYR385 
 HIS386  TRP387  LEU390  VAL434  LEU507  ARG513  ALA516  ILE517  PHE518  GLY519 
 GLU520  THR521  MET522  VAL523  GLU524  VAL525  GLY526  ALA527  PRO528  PHE529 
 SER530  LEU531  LYS532  GLY533  LEU534  MET535  COH609 

> <Gold.Protein.RotatedAtoms>
   17.7092    7.4149    2.0907 H   0  0  0  0  0  0  0  0  0  0  0  0  # atno 1366 bound_to 1361
    4.7881   -9.6564    6.6046 H   0  0  0  0  0  0  0  0  0  0  0  0  # atno 2556 bound_to 2551
   -4.0585    0.1467    1.0666 H   0  0  0  0  0  0  0  0  0  0  0  0  # atno 2749 bound_to 2745
    1.4300   -1.3322    3.7307 H   0  0  0  0  0  0  0  0  0  0  0  0  # atno 5077 bound_to 5068
   11.7954   -2.8267    9.2516 H   0  0  0  0  0  0  0  0  0  0  0  0  # atno 5157 bound_to 5152
   15.7824   -1.1111    4.6567 H   0  0  0  0  0  0  0  0  0  0  0  0  # atno 5185 bound_to 5176
    2.4309   -1.0936    2.6654 H   0  0  0  0  0  0  0  0  0  0  0  0  # atno 5712 bound_to 5703
    6.0782    4.9902    3.6463 H   0  0  0  0  0  0  0  0  0  0  0  0  # atno 8036 bound_to 8031
    0.5931   -2.4528    4.2831 LP  0  0  0  0  0  0  0  0  0  0  0  0  # atno 8267 bound_to 5068
    2.1790   -2.6206    3.9316 LP  0  0  0  0  0  0  0  0  0  0  0  0  # atno 8268 bound_to 5068
   11.6357   -1.3321    9.3274 LP  0  0  0  0  0  0  0  0  0  0  0  0  # atno 8279 bound_to 5152
   13.0904   -2.0620    9.1951 LP  0  0  0  0  0  0  0  0  0  0  0  0  # atno 8280 bound_to 5152
   16.6611    0.0397    5.0593 LP  0  0  0  0  0  0  0  0  0  0  0  0  # atno 8281 bound_to 5176
   15.0436    0.1780    4.8826 LP  0  0  0  0  0  0  0  0  0  0  0  0  # atno 8282 bound_to 5176
    1.4553    0.0356    2.8439 LP  0  0  0  0  0  0  0  0  0  0  0  0  # atno 8283 bound_to 5703
    2.9987    0.2645    2.3619 LP  0  0  0  0  0  0  0  0  0  0  0  0  # atno 8284 bound_to 5703
    5.6623    3.5482    3.5595 LP  0  0  0  0  0  0  0  0  0  0  0  0  # atno 8309 bound_to 8031
    4.6569    4.7844    3.2020 LP  0  0  0  0  0  0  0  0  0  0  0  0  # atno 8310 bound_to 8031
   -2.7769   -0.6291    0.9290 LP  0  0  0  0  0  0  0  0  0  0  0  0  # atno 8323 bound_to 2745
   -3.5734    0.0005   -0.3500 LP  0  0  0  0  0  0  0  0  0  0  0  0  # atno 8324 bound_to 2745
   18.1974    7.5847    3.5038 LP  0  0  0  0  0  0  0  0  0  0  0  0  # atno 8335 bound_to 1361
   18.8159    6.4728    2.4802 LP  0  0  0  0  0  0  0  0  0  0  0  0  # atno 8336 bound_to 1361
    5.2612  -10.0624    7.9742 LP  0  0  0  0  0  0  0  0  0  0  0  0  # atno 8342 bound_to 2551
    4.5412   -8.6277    7.6746 LP  0  0  0  0  0  0  0  0  0  0  0  0  # atno 8343 bound_to 2551

