
181|LMW3_p|sdf|181|dock2
  -GOLD-   61022 2143D 1   1.00000     0.00000

 82 85  0  0  0  0  0  0  0  0  1 V2000
    9.6575    3.6453    4.3094 O   0  0  0  0  0  0  0  0  0  0  0  0
    9.4383    2.5800    3.7358 C   0  0  0  0  0  0  0  0  0  0  0  0
   10.4690    1.4908    3.6921 C   0  0  0  0  0  0  0  0  0  0  0  0
    8.1180    2.3686    3.0340 C   0  0  0  0  0  0  0  0  0  0  0  0
   10.2063    0.3239    3.0454 C   0  0  0  0  0  0  0  0  0  0  0  0
   11.7905    1.7066    4.4204 C   0  0  1  0  0  0  0  0  0  0  0  0
    7.7434    0.8840    2.9984 C   0  0  2  0  0  0  0  0  0  0  0  0
    8.8754    0.0652    2.2871 C   0  0  2  0  0  0  0  0  0  0  0  0
   11.2588   -0.7902    2.9812 C   0  0  0  0  0  0  0  0  0  0  0  0
   12.9605    0.9819    3.6421 C   0  0  2  0  0  0  0  0  0  0  0  0
   12.3916    3.1184    4.5532 C   0  0  0  0  0  0  0  0  0  0  0  0
   11.5314    1.1854    5.8678 C   0  0  0  0  0  0  0  0  0  0  0  0
    6.2636    0.6184    2.5492 C   0  0  0  0  0  0  0  0  0  0  0  0
    8.4633   -1.4290    2.3361 C   0  0  0  0  0  0  0  0  0  0  0  0
    9.1465    0.4762    0.8215 C   0  0  0  0  0  0  0  0  0  0  0  0
   12.6361   -0.5157    3.6185 C   0  0  0  0  0  0  0  0  0  0  0  0
   14.2085    1.4102    4.4732 C   0  0  2  0  0  0  0  0  0  0  0  0
   13.1240    1.4792    2.1707 C   0  0  0  0  0  0  0  0  0  0  0  0
   13.8943    2.8958    4.8038 C   0  0  0  0  0  0  0  0  0  0  0  0
    6.0298   -0.8931    2.3992 C   0  0  0  0  0  0  0  0  0  0  0  0
    5.2992    1.1320    3.6501 C   0  0  0  0  0  0  0  0  0  0  0  0
    5.8461    1.2965    1.2356 C   0  0  0  0  0  0  0  0  0  0  0  0
    7.1024   -1.7037    1.7179 C   0  0  0  0  0  0  0  0  0  0  0  0
   15.6342    1.2360    3.8759 C   0  0  1  0  0  0  0  0  0  0  0  0
    4.9725   -1.4331    2.7293 O   0  0  0  0  0  0  0  0  0  0  0  0
   16.7607    1.6112    4.8774 C   0  0  0  0  0  0  0  0  0  0  0  0
   15.8800   -0.1732    3.3272 C   0  0  0  0  0  0  0  0  0  0  0  0
   17.7744    2.6476    4.3659 C   0  0  0  0  0  0  0  0  0  0  0  0
   18.5067    2.1545    3.1026 C   0  0  2  0  0  0  0  0  0  0  0  0
   19.5371    1.2354    3.4708 O   0  0  0  0  0  0  0  0  0  0  0  0
   19.0709    3.3031    2.2128 C   0  0  0  0  0  0  0  0  0  0  0  0
   17.9914    4.1200    1.7408 O   0  0  0  0  0  0  0  0  0  0  0  0
   20.0292    4.2270    2.9714 C   0  0  0  0  0  0  0  0  0  0  0  0
   19.7958    2.7283    0.9884 C   0  0  0  0  0  0  0  0  0  0  0  0
    8.1930    2.7342    2.0311 H   0  0  0  0  0  0  0  0  0  0  0  0
    7.3590    2.8976    3.5716 H   0  0  0  0  0  0  0  0  0  0  0  0
    7.7106    0.4975    3.9957 H   0  0  0  0  0  0  0  0  0  0  0  0
   11.4241   -1.0140    1.9480 H   0  0  0  0  0  0  0  0  0  0  0  0
   10.8454   -1.5856    3.5654 H   0  0  0  0  0  0  0  0  0  0  0  0
   11.9474    3.6395    5.3754 H   0  0  0  0  0  0  0  0  0  0  0  0
   12.2156    3.7117    3.6803 H   0  0  0  0  0  0  0  0  0  0  0  0
   11.0851    0.2140    5.8226 H   0  0  0  0  0  0  0  0  0  0  0  0
   10.8719    1.8575    6.3762 H   0  0  0  0  0  0  0  0  0  0  0  0
   12.4593    1.1274    6.3975 H   0  0  0  0  0  0  0  0  0  0  0  0
    8.4392   -1.7402    3.3596 H   0  0  0  0  0  0  0  0  0  0  0  0
    9.1847   -1.9731    1.7630 H   0  0  0  0  0  0  0  0  0  0  0  0
    9.1929   -0.3995    0.2083 H   0  0  0  0  0  0  0  0  0  0  0  0
   10.0770    1.0012    0.7645 H   0  0  0  0  0  0  0  0  0  0  0  0
    8.3569    1.1112    0.4773 H   0  0  0  0  0  0  0  0  0  0  0  0
   13.3879   -1.0247    3.0523 H   0  0  0  0  0  0  0  0  0  0  0  0
   12.6130   -0.8683    4.6285 H   0  0  0  0  0  0  0  0  0  0  0  0
   14.3095    0.7404    5.3015 H   0  0  0  0  0  0  0  0  0  0  0  0
   12.2466    1.2311    1.6107 H   0  0  0  0  0  0  0  0  0  0  0  0
   13.9755    1.0068    1.7271 H   0  0  0  0  0  0  0  0  0  0  0  0
   13.2620    2.5403    2.1661 H   0  0  0  0  0  0  0  0  0  0  0  0
   14.1278    3.0993    5.8280 H   0  0  0  0  0  0  0  0  0  0  0  0
   14.4793    3.5498    4.1915 H   0  0  0  0  0  0  0  0  0  0  0  0
    4.3039    0.8043    3.4335 H   0  0  0  0  0  0  0  0  0  0  0  0
    5.3249    2.2013    3.6764 H   0  0  0  0  0  0  0  0  0  0  0  0
    5.6035    0.7445    4.6000 H   0  0  0  0  0  0  0  0  0  0  0  0
    4.7997    1.5178    1.2653 H   0  0  0  0  0  0  0  0  0  0  0  0
    6.0487    0.6400    0.4153 H   0  0  0  0  0  0  0  0  0  0  0  0
    6.3992    2.2039    1.1111 H   0  0  0  0  0  0  0  0  0  0  0  0
    6.8742   -2.7439    1.8208 H   0  0  0  0  0  0  0  0  0  0  0  0
    7.1343   -1.4290    0.6842 H   0  0  0  0  0  0  0  0  0  0  0  0
   15.6719    1.9259    3.0588 H   0  0  0  0  0  0  0  0  0  0  0  0
   17.2961    0.7179    5.1229 H   0  0  0  0  0  0  0  0  0  0  0  0
   16.2733    2.0623    5.7164 H   0  0  0  0  0  0  0  0  0  0  0  0
   15.3543   -0.2928    2.4030 H   0  0  0  0  0  0  0  0  0  0  0  0
   15.5297   -0.8970    4.0332 H   0  0  0  0  0  0  0  0  0  0  0  0
   16.9278   -0.3140    3.1623 H   0  0  0  0  0  0  0  0  0  0  0  0
   18.4957    2.8352    5.1336 H   0  0  0  0  0  0  0  0  0  0  0  0
   17.2405    3.5401    4.1145 H   0  0  0  0  0  0  0  0  0  0  0  0
   17.7782    1.6587    2.4957 H   0  0  0  0  0  0  0  0  0  0  0  0
   19.1368    0.4241    3.8209 H   0  0  0  0  0  0  0  0  0  0  0  0
   18.3435    4.8290    1.1802 H   0  0  0  0  0  0  0  0  0  0  0  0
   19.5077    4.6960    3.7794 H   0  0  0  0  0  0  0  0  0  0  0  0
   20.4037    4.9764    2.3059 H   0  0  0  0  0  0  0  0  0  0  0  0
   20.8454    3.6537    3.3586 H   0  0  0  0  0  0  0  0  0  0  0  0
   20.6205    2.1280    1.3115 H   0  0  0  0  0  0  0  0  0  0  0  0
   20.1557    3.5300    0.3780 H   0  0  0  0  0  0  0  0  0  0  0  0
   19.1166    2.1259    0.4220 H   0  0  0  0  0  0  0  0  0  0  0  0
  1  2  2  0  0  0  0
  2  3  1  0  0  0  0
  2  4  1  0  0  0  0
  3  5  2  0  0  0  0
  3  6  1  0  0  0  0
  4  7  1  0  0  0  0
  4 35  1  0  0  0  0
  4 36  1  0  0  0  0
  5  8  1  0  0  0  0
  5  9  1  0  0  0  0
  6 10  1  0  0  0  0
  6 11  1  0  0  0  0
  6 12  1  0  0  0  0
  7 13  1  0  0  0  0
  7  8  1  0  0  0  0
  7 37  1  0  0  0  0
  8 14  1  0  0  0  0
  8 15  1  0  0  0  0
  9 16  1  0  0  0  0
  9 38  1  0  0  0  0
  9 39  1  0  0  0  0
 10 17  1  0  0  0  0
 10 18  1  0  0  0  0
 10 16  1  0  0  0  0
 11 19  1  0  0  0  0
 11 40  1  0  0  0  0
 11 41  1  0  0  0  0
 12 42  1  0  0  0  0
 12 43  1  0  0  0  0
 12 44  1  0  0  0  0
 13 20  1  0  0  0  0
 13 21  1  0  0  0  0
 13 22  1  0  0  0  0
 14 23  1  0  0  0  0
 14 45  1  0  0  0  0
 14 46  1  0  0  0  0
 15 47  1  0  0  0  0
 15 48  1  0  0  0  0
 15 49  1  0  0  0  0
 16 50  1  0  0  0  0
 16 51  1  0  0  0  0
 17 24  1  0  0  0  0
 17 19  1  0  0  0  0
 17 52  1  0  0  0  0
 18 53  1  0  0  0  0
 18 54  1  0  0  0  0
 18 55  1  0  0  0  0
 19 56  1  0  0  0  0
 19 57  1  0  0  0  0
 20 25  2  0  0  0  0
 20 23  1  0  0  0  0
 21 58  1  0  0  0  0
 21 59  1  0  0  0  0
 21 60  1  0  0  0  0
 22 61  1  0  0  0  0
 22 62  1  0  0  0  0
 22 63  1  0  0  0  0
 23 64  1  0  0  0  0
 23 65  1  0  0  0  0
 24 26  1  0  0  0  0
 24 27  1  0  0  0  0
 24 66  1  0  0  0  0
 26 28  1  0  0  0  0
 26 67  1  0  0  0  0
 26 68  1  0  0  0  0
 27 69  1  0  0  0  0
 27 70  1  0  0  0  0
 27 71  1  0  0  0  0
 28 29  1  0  0  0  0
 28 72  1  0  0  0  0
 28 73  1  0  0  0  0
 29 30  1  0  0  0  0
 29 31  1  0  0  0  0
 29 74  1  0  0  0  0
 30 75  1  0  0  0  0
 31 32  1  0  0  0  0
 31 33  1  0  0  0  0
 31 34  1  0  0  0  0
 32 76  1  0  0  0  0
 33 77  1  0  0  0  0
 33 78  1  0  0  0  0
 33 79  1  0  0  0  0
 34 80  1  0  0  0  0
 34 81  1  0  0  0  0
 34 82  1  0  0  0  0
M  END
>  <Code-name>
181

>  <Compound>
Lucidumol A

>  <Specie>
Ganoderma lucidum

>  <Reference>
PATERSON,2006

>  <Organism>
Antitumoral Activity

>  <Smiles>
C[C@H](CC[C@@H](C(C)(C)O)O)[C@@H](CC1)[C@@](C)(CC2)[C@]1(C)C(C(C1)=O)=C2[C@@](C)(CC2)[C@@H]1C(C)(C)C2=O

>  <MMFF94 Energy>
147.19

>  <Total Molweight>
472.707

>  <Molweight>
472.707

>  <Monoisotopic Mass>
472.355260

>  <cLogP>
5.8397

>  <cLogS>
-5.571

>  <H-Acceptors>
4

>  <H-Donors>
2

>  <Total Surface Area>
354.59

>  <Relative PSA>
0.14744

>  <Polar Surface Area>
74.6

>  <Druglikeness>
-3.8493

>  <Mutagenic>
none

>  <Tumorigenic>
none

>  <Reproductive Effective>
none

>  <Irritant>
none

>  <Nasty Functions>


>  <Shape Index>
0.47059

>  <Molecular Flexibility>
0.31079

>  <Molecular Complexity>
0.98452

>  <Fragments>
1

>  <Non-H Atoms>
34

>  <Non-C/H Atoms>
4

>  <Metal-Atoms>
0

>  <Electronegative Atoms>
4

>  <Stereo Centers>
7

>  <Rotatable Bonds>
5

>  <Rings Closures>
4

>  <Small Rings>
4

>  <Aromatic Rings>
0

>  <Aromatic Atoms>
0

>  <sp3-Atoms>
28

>  <Symmetric atoms>
2

>  <Amides>
0

>  <Amines>
0

>  <Alkyl-Amines>
0

>  <Aromatic Amines>
0

>  <Aromatic Nitrogens>
0

>  <Basic Nitrogens>
0

>  <Acidic Oxygens>
0

>  <Stereo Configuration>
this enantiomer

> <Gold.Version>
5.8.1

> <Gold.Id.Protein>
ID_2|Prot_COX2_5IKQ_Alig|mol2

> <Gold.Goldscore.Fitness>
-55.0214

> <Gold.Goldscore.Internal.Vdw>
-32.1308

> <Gold.Goldscore.Internal.Torsion>
-9.1809

> <Gold.Goldscore.External.Vdw>
-32.8698

> <Gold.Goldscore.Internal.HBond>
0.0000

> <Gold.Goldscore.External.HBond>
1.8172

> <Gold.Goldscore.Internal.Correction>
-29.6691

> <Gold.Goldscore.Hbonds>
donor molecule, donor type, donor heavy atom, donor atom, acceptor molecule, acceptor atom, score
      P1  H  5068  5077       L1    25  0.25
      P1  H  5703  5712       L1    25  0.66

> <Gold.Goldscore.Internal.Vdw.Weighted>
-32.1308

> <Gold.Goldscore.Internal.Torsion.Weighted>
-9.1809

> <Gold.Goldscore.External.Vdw.Weighted>
-45.1960

> <Gold.Goldscore.Internal.HBond.Weighted>
0.0000

> <Gold.Goldscore.External.HBond.Weighted>
1.8172

> <Gold.Goldscore.Internal.Correction.Weighted>
-29.6691

> <Gold.Protein.RotatedTorsions>
[ 5077 5068 5067 5065 ] final -146.92 input  179.94 | X-H torsion
[ 5157 5152 5151 5148 ] final -116.84 input -179.92 | X-H torsion
[ 5185 5176 5175 5173 ] final    0.99 input -179.99 | X-H torsion
[ 5712 5703 5702 5700 ] final   91.78 input  180.00 | X-H torsion
[ 8036 8031 8030 8027 ] final   63.40 input -179.94 | X-H torsion
[ 2749 2745 2743 2740 ] final -144.67 input  -60.05 | X-H torsion
[ 1366 1361 1360 1357 ] final  -48.28 input  -60.09 | X-H torsion
[ 2556 2551 2550 2547 ] final  152.40 input   59.97 | X-H torsion

> <Gold.Protein.ActiveResidues>
 PRO86   VAL89   HIS90   LEU93   THR94   ILE112  MET113  TYR115  VAL116  LEU117 
 THR118  SER119  ARG120  SER121  LEU123  ILE124  GLN192  SER194  PHE198  PHE201 
 ALA202  GLN203  PHE205  THR206  PHE209  PHE210  VAL228  ILE341  ILE343  VAL344 
 ILE345  GLU346  ASP347  TYR348  VAL349  GLN350  HIS351  LEU352  SER353  GLY354 
 TYR355  PHE357  LEU359  LYS360  GLU380  PHE381  ASN382  THR383  LEU384  TYR385 
 HIS386  TRP387  LEU390  VAL434  LEU507  ARG513  ALA516  ILE517  PHE518  GLY519 
 GLU520  THR521  MET522  VAL523  GLU524  VAL525  GLY526  ALA527  PRO528  PHE529 
 SER530  LEU531  LYS532  GLY533  LEU534  MET535  COH609 

> <Gold.Protein.RotatedAtoms>
   17.8036    7.7697    2.9802 H   0  0  0  0  0  0  0  0  0  0  0  0  # atno 1366 bound_to 1361
    4.7310   -9.5388    6.5912 H   0  0  0  0  0  0  0  0  0  0  0  0  # atno 2556 bound_to 2551
   -2.8205   -0.5213    0.6833 H   0  0  0  0  0  0  0  0  0  0  0  0  # atno 2749 bound_to 2745
    2.1544   -1.9592    3.7600 H   0  0  0  0  0  0  0  0  0  0  0  0  # atno 5077 bound_to 5068
   11.5943   -1.5579    9.2839 H   0  0  0  0  0  0  0  0  0  0  0  0  # atno 5157 bound_to 5152
   16.0385   -1.0918    4.6965 H   0  0  0  0  0  0  0  0  0  0  0  0  # atno 5185 bound_to 5176
    2.9309   -0.7695    2.4753 H   0  0  0  0  0  0  0  0  0  0  0  0  # atno 5712 bound_to 5703
    4.7720    4.5554    3.1972 H   0  0  0  0  0  0  0  0  0  0  0  0  # atno 8036 bound_to 8031
    0.7646   -1.3964    3.8744 LP  0  0  0  0  0  0  0  0  0  0  0  0  # atno 8267 bound_to 5068
    1.1400   -2.9262    4.3052 LP  0  0  0  0  0  0  0  0  0  0  0  0  # atno 8268 bound_to 5068
   13.0618   -1.8811    9.1997 LP  0  0  0  0  0  0  0  0  0  0  0  0  # atno 8279 bound_to 5152
   11.9049   -3.0305    9.2841 LP  0  0  0  0  0  0  0  0  0  0  0  0  # atno 8280 bound_to 5152
   16.4770    0.2863    5.1055 LP  0  0  0  0  0  0  0  0  0  0  0  0  # atno 8281 bound_to 5176
   14.9203   -0.0918    4.7886 LP  0  0  0  0  0  0  0  0  0  0  0  0  # atno 8282 bound_to 5176
    1.5003   -0.7067    2.9315 LP  0  0  0  0  0  0  0  0  0  0  0  0  # atno 8283 bound_to 5703
    2.3535    0.6178    2.5024 LP  0  0  0  0  0  0  0  0  0  0  0  0  # atno 8284 bound_to 5703
    6.0237    5.2394    3.6720 LP  0  0  0  0  0  0  0  0  0  0  0  0  # atno 8309 bound_to 8031
    5.8627    3.6149    3.6283 LP  0  0  0  0  0  0  0  0  0  0  0  0  # atno 8310 bound_to 8031
   -3.7810    0.1126   -0.2857 LP  0  0  0  0  0  0  0  0  0  0  0  0  # atno 8323 bound_to 2745
   -4.0520    0.0589    1.3237 LP  0  0  0  0  0  0  0  0  0  0  0  0  # atno 8324 bound_to 2745
   18.8865    6.7383    3.1457 LP  0  0  0  0  0  0  0  0  0  0  0  0  # atno 8335 bound_to 1361
   18.0139    6.8948    1.7743 LP  0  0  0  0  0  0  0  0  0  0  0  0  # atno 8336 bound_to 1361
    5.2825  -10.1543    7.8486 LP  0  0  0  0  0  0  0  0  0  0  0  0  # atno 8342 bound_to 2551
    4.5882   -8.6766    7.8162 LP  0  0  0  0  0  0  0  0  0  0  0  0  # atno 8343 bound_to 2551

