
183|LMW3_p|sdf|183|dock2
  -GOLD-   61022 2173D 1   1.00000     0.00000

 83 86  0  0  0  0  0  0  0  0  1 V2000
   17.6922    1.6419    5.0048 O   0  0  0  0  0  0  0  0  0  0  0  0
   18.2352    2.9545    4.7983 C   0  0  0  0  0  0  0  0  0  0  0  0
   17.1125    4.0196    4.9910 C   0  0  1  0  0  0  0  0  0  0  0  0
   18.8347    2.9791    3.3888 C   0  0  0  0  0  0  0  0  0  0  0  0
   19.3590    3.1614    5.8237 C   0  0  0  0  0  0  0  0  0  0  0  0
   17.3167    5.1067    4.0865 O   0  0  0  0  0  0  0  0  0  0  0  0
   15.6927    3.4462    4.8083 C   0  0  0  0  0  0  0  0  0  0  0  0
   15.1771    2.7315    6.0699 C   0  0  0  0  0  0  0  0  0  0  0  0
   13.6481    2.4485    6.0518 C   0  0  2  0  0  0  0  0  0  0  0  0
   13.2423    1.7635    4.7100 C   0  0  2  0  0  0  0  0  0  0  0  0
   12.8712    3.7489    6.2865 C   0  0  0  0  0  0  0  0  0  0  0  0
   11.7371    1.5211    4.3800 C   0  0  2  0  0  0  0  0  0  0  0  0
   13.8472    0.3321    4.5762 C   0  0  0  0  0  0  0  0  0  0  0  0
   11.8301    0.4693    3.2157 C   0  0  1  0  0  0  0  0  0  0  0  0
   10.9378    2.7241    3.8462 C   0  0  0  0  0  0  0  0  0  0  0  0
   11.0116    0.9599    5.6461 C   0  0  0  0  0  0  0  0  0  0  0  0
   12.8333   -0.5354    3.8085 C   0  0  0  0  0  0  0  0  0  0  0  0
   10.4356   -0.0171    2.8226 C   0  0  0  0  0  0  0  0  0  0  0  0
   12.4661    1.0065    1.8921 C   0  0  0  0  0  0  0  0  0  0  0  0
    9.6500    2.2781    3.1864 C   0  0  0  0  0  0  0  0  0  0  0  0
    9.3789    1.0193    2.7641 C   0  0  0  0  0  0  0  0  0  0  0  0
   10.1858   -1.2971    2.4949 C   0  0  0  0  0  0  0  0  0  0  0  0
    7.9607    0.5782    2.2886 C   0  0  2  0  0  0  0  0  0  0  0  0
    8.8898   -1.7761    1.9175 C   0  0  0  0  0  0  0  0  0  0  0  0
    8.1064   -0.6141    1.2728 C   0  0  1  0  0  0  0  0  0  0  0  0
    7.2056    1.7355    1.5799 C   0  0  0  0  0  0  0  0  0  0  0  0
    7.1984    0.2083    3.5858 C   0  0  0  0  0  0  0  0  0  0  0  0
    6.8103   -1.0626    0.4950 C   0  0  0  0  0  0  0  0  0  0  0  0
    5.9048    1.3076    0.9124 C   0  0  0  0  0  0  0  0  0  0  0  0
    6.1259    0.1981   -0.1078 C   0  0  2  0  0  0  0  0  0  0  0  0
    7.2220   -1.9857   -0.6872 C   0  0  0  0  0  0  0  0  0  0  0  0
    5.8155   -1.8856    1.3403 C   0  0  0  0  0  0  0  0  0  0  0  0
    4.8547   -0.1098   -0.6775 O   0  0  0  0  0  0  0  0  0  0  0  0
   18.4014    0.9838    4.9340 H   0  0  0  0  0  0  0  0  0  0  0  0
   17.1795    4.3598    6.0033 H   0  0  0  0  0  0  0  0  0  0  0  0
   18.0473    3.0464    2.6674 H   0  0  0  0  0  0  0  0  0  0  0  0
   19.3942    2.0822    3.2235 H   0  0  0  0  0  0  0  0  0  0  0  0
   19.4814    3.8260    3.2910 H   0  0  0  0  0  0  0  0  0  0  0  0
   18.9726    3.0151    6.8107 H   0  0  0  0  0  0  0  0  0  0  0  0
   19.7441    4.1557    5.7352 H   0  0  0  0  0  0  0  0  0  0  0  0
   20.1436    2.4574    5.6399 H   0  0  0  0  0  0  0  0  0  0  0  0
   18.1968    5.4876    4.2322 H   0  0  0  0  0  0  0  0  0  0  0  0
   15.7073    2.7459    3.9994 H   0  0  0  0  0  0  0  0  0  0  0  0
   15.0350    4.2661    4.6082 H   0  0  0  0  0  0  0  0  0  0  0  0
   15.3963    3.3454    6.9184 H   0  0  0  0  0  0  0  0  0  0  0  0
   15.6688    1.7821    6.1125 H   0  0  0  0  0  0  0  0  0  0  0  0
   13.4014    1.7740    6.8449 H   0  0  0  0  0  0  0  0  0  0  0  0
   13.6171    2.5131    4.0449 H   0  0  0  0  0  0  0  0  0  0  0  0
   12.9216    4.3579    5.4081 H   0  0  0  0  0  0  0  0  0  0  0  0
   13.3008    4.2772    7.1119 H   0  0  0  0  0  0  0  0  0  0  0  0
   11.8488    3.5194    6.5032 H   0  0  0  0  0  0  0  0  0  0  0  0
   14.0199   -0.0826    5.5472 H   0  0  0  0  0  0  0  0  0  0  0  0
   14.7806    0.3674    4.0543 H   0  0  0  0  0  0  0  0  0  0  0  0
   11.5340    3.2482    3.1287 H   0  0  0  0  0  0  0  0  0  0  0  0
   10.6926    3.3602    4.6709 H   0  0  0  0  0  0  0  0  0  0  0  0
   10.7424    1.7699    6.2914 H   0  0  0  0  0  0  0  0  0  0  0  0
   11.6665    0.2923    6.1659 H   0  0  0  0  0  0  0  0  0  0  0  0
   10.1292    0.4334    5.3475 H   0  0  0  0  0  0  0  0  0  0  0  0
   12.3397   -1.2148    4.4715 H   0  0  0  0  0  0  0  0  0  0  0  0
   13.3010   -1.1335    3.0546 H   0  0  0  0  0  0  0  0  0  0  0  0
   13.3036    0.3961    1.6255 H   0  0  0  0  0  0  0  0  0  0  0  0
   12.7917    2.0154    2.0366 H   0  0  0  0  0  0  0  0  0  0  0  0
   11.7383    0.9754    1.1084 H   0  0  0  0  0  0  0  0  0  0  0  0
    8.9180    2.9919    3.0467 H   0  0  0  0  0  0  0  0  0  0  0  0
   10.9328   -1.9918    2.6509 H   0  0  0  0  0  0  0  0  0  0  0  0
    8.2975   -2.2066    2.6978 H   0  0  0  0  0  0  0  0  0  0  0  0
    9.1024   -2.5034    1.1620 H   0  0  0  0  0  0  0  0  0  0  0  0
    8.6833   -0.2172    0.4638 H   0  0  0  0  0  0  0  0  0  0  0  0
    7.8486    2.1483    0.8308 H   0  0  0  0  0  0  0  0  0  0  0  0
    6.9466    2.4462    2.3367 H   0  0  0  0  0  0  0  0  0  0  0  0
    7.6004   -0.6973    3.9898 H   0  0  0  0  0  0  0  0  0  0  0  0
    6.1612    0.0699    3.3627 H   0  0  0  0  0  0  0  0  0  0  0  0
    7.3074    0.9970    4.3007 H   0  0  0  0  0  0  0  0  0  0  0  0
    5.4766    2.1533    0.4160 H   0  0  0  0  0  0  0  0  0  0  0  0
    5.2508    0.9331    1.6719 H   0  0  0  0  0  0  0  0  0  0  0  0
    6.8073    0.5384   -0.8594 H   0  0  0  0  0  0  0  0  0  0  0  0
    7.9367   -1.4799   -1.3024 H   0  0  0  0  0  0  0  0  0  0  0  0
    6.3572   -2.2267   -1.2695 H   0  0  0  0  0  0  0  0  0  0  0  0
    7.6554   -2.8854   -0.3031 H   0  0  0  0  0  0  0  0  0  0  0  0
    4.8143   -1.6219    1.0700 H   0  0  0  0  0  0  0  0  0  0  0  0
    5.9714   -1.6769    2.3781 H   0  0  0  0  0  0  0  0  0  0  0  0
    5.9709   -2.9286    1.1589 H   0  0  0  0  0  0  0  0  0  0  0  0
    4.9804   -0.6301   -1.4865 H   0  0  0  0  0  0  0  0  0  0  0  0
  1  2  1  0  0  0  0
  1 34  1  0  0  0  0
  2  3  1  0  0  0  0
  2  4  1  0  0  0  0
  2  5  1  0  0  0  0
  3  6  1  0  0  0  0
  3  7  1  0  0  0  0
  3 35  1  0  0  0  0
  4 36  1  0  0  0  0
  4 37  1  0  0  0  0
  4 38  1  0  0  0  0
  5 39  1  0  0  0  0
  5 40  1  0  0  0  0
  5 41  1  0  0  0  0
  6 42  1  0  0  0  0
  7  8  1  0  0  0  0
  7 43  1  0  0  0  0
  7 44  1  0  0  0  0
  8  9  1  0  0  0  0
  8 45  1  0  0  0  0
  8 46  1  0  0  0  0
  9 10  1  0  0  0  0
  9 11  1  0  0  0  0
  9 47  1  0  0  0  0
 10 12  1  0  0  0  0
 10 13  1  0  0  0  0
 10 48  1  0  0  0  0
 11 49  1  0  0  0  0
 11 50  1  0  0  0  0
 11 51  1  0  0  0  0
 12 14  1  0  0  0  0
 12 15  1  0  0  0  0
 12 16  1  0  0  0  0
 13 17  1  0  0  0  0
 13 52  1  0  0  0  0
 13 53  1  0  0  0  0
 14 18  1  0  0  0  0
 14 19  1  0  0  0  0
 14 17  1  0  0  0  0
 15 20  1  0  0  0  0
 15 54  1  0  0  0  0
 15 55  1  0  0  0  0
 16 56  1  0  0  0  0
 16 57  1  0  0  0  0
 16 58  1  0  0  0  0
 17 59  1  0  0  0  0
 17 60  1  0  0  0  0
 18 21  1  0  0  0  0
 18 22  2  0  0  0  0
 19 61  1  0  0  0  0
 19 62  1  0  0  0  0
 19 63  1  0  0  0  0
 20 21  2  0  0  0  0
 20 64  1  0  0  0  0
 21 23  1  0  0  0  0
 22 24  1  0  0  0  0
 22 65  1  0  0  0  0
 23 25  1  0  0  0  0
 23 26  1  0  0  0  0
 23 27  1  0  0  0  0
 24 25  1  0  0  0  0
 24 66  1  0  0  0  0
 24 67  1  0  0  0  0
 25 28  1  0  0  0  0
 25 68  1  0  0  0  0
 26 29  1  0  0  0  0
 26 69  1  0  0  0  0
 26 70  1  0  0  0  0
 27 71  1  0  0  0  0
 27 72  1  0  0  0  0
 27 73  1  0  0  0  0
 28 30  1  0  0  0  0
 28 31  1  0  0  0  0
 28 32  1  0  0  0  0
 29 30  1  0  0  0  0
 29 74  1  0  0  0  0
 29 75  1  0  0  0  0
 30 33  1  0  0  0  0
 30 76  1  0  0  0  0
 31 77  1  0  0  0  0
 31 78  1  0  0  0  0
 31 79  1  0  0  0  0
 32 80  1  0  0  0  0
 32 81  1  0  0  0  0
 32 82  1  0  0  0  0
 33 83  1  0  0  0  0
M  END
>  <Code-name>
183

>  <Compound>
Lucidumol B

>  <Specie>
Ganoderma lucidum

>  <Reference>
PATERSON,2007

>  <Organism>
Antitumoral Activity

>  <Smiles>
C[C@H](CC[C@@H](C(C)(C)O)O)[C@@H](CC1)[C@]2(C)[C@]1(C)C1=CC[C@@H](C(C)(C)[C@H](CC3)O)[C@@]3(C)C1=CC2

>  <MMFF94 Energy>
141.06

>  <Total Molweight>
458.724

>  <Molweight>
458.724

>  <Monoisotopic Mass>
458.375995

>  <cLogP>
6.129

>  <cLogS>
-5.64

>  <H-Acceptors>
3

>  <H-Donors>
3

>  <Total Surface Area>
350.68

>  <Relative PSA>
0.11207

>  <Polar Surface Area>
60.69

>  <Druglikeness>
-3.0276

>  <Mutagenic>
none

>  <Tumorigenic>
none

>  <Reproductive Effective>
none

>  <Irritant>
none

>  <Nasty Functions>


>  <Shape Index>
0.48485

>  <Molecular Flexibility>
0.31916

>  <Molecular Complexity>
0.99966

>  <Fragments>
1

>  <Non-H Atoms>
33

>  <Non-C/H Atoms>
3

>  <Metal-Atoms>
0

>  <Electronegative Atoms>
3

>  <Stereo Centers>
8

>  <Rotatable Bonds>
5

>  <Rings Closures>
4

>  <Small Rings>
4

>  <Aromatic Rings>
0

>  <Aromatic Atoms>
0

>  <sp3-Atoms>
29

>  <Symmetric atoms>
2

>  <Amides>
0

>  <Amines>
0

>  <Alkyl-Amines>
0

>  <Aromatic Amines>
0

>  <Aromatic Nitrogens>
0

>  <Basic Nitrogens>
0

>  <Acidic Oxygens>
0

>  <Stereo Configuration>
this enantiomer

> <Gold.Version>
5.8.1

> <Gold.Id.Protein>
ID_2|Prot_COX2_5IKQ_Alig|mol2

> <Gold.Goldscore.Fitness>
-44.0644

> <Gold.Goldscore.Internal.Vdw>
-43.1727

> <Gold.Goldscore.Internal.Torsion>
-10.3643

> <Gold.Goldscore.External.Vdw>
-20.2913

> <Gold.Goldscore.Internal.HBond>
0.0000

> <Gold.Goldscore.External.HBond>
2.1739

> <Gold.Goldscore.Internal.Correction>
-35.1991

> <Gold.Goldscore.Hbonds>
donor molecule, donor type, donor heavy atom, donor atom, acceptor molecule, acceptor atom, score
      P1  H  1377  1389       L1     1  0.08
      P1  H  5176  5185       L1     1  0.85

> <Gold.Goldscore.Internal.Vdw.Weighted>
-43.1727

> <Gold.Goldscore.Internal.Torsion.Weighted>
-10.3643

> <Gold.Goldscore.External.Vdw.Weighted>
-27.9005

> <Gold.Goldscore.Internal.HBond.Weighted>
0.0000

> <Gold.Goldscore.External.HBond.Weighted>
2.1739

> <Gold.Goldscore.Internal.Correction.Weighted>
-35.1991

> <Gold.Protein.RotatedTorsions>
[ 5077 5068 5067 5065 ] final  151.69 input  179.94 | X-H torsion
[ 5157 5152 5151 5148 ] final -133.87 input -179.92 | X-H torsion
[ 5185 5176 5175 5173 ] final -109.76 input -179.99 | X-H torsion
[ 5712 5703 5702 5700 ] final -177.69 input  180.00 | X-H torsion
[ 8036 8031 8030 8027 ] final  126.85 input -179.94 | X-H torsion
[ 2749 2745 2743 2740 ] final -154.29 input  -60.05 | X-H torsion
[ 1366 1361 1360 1357 ] final   97.81 input  -60.09 | X-H torsion
[ 2556 2551 2550 2547 ] final   27.51 input   59.97 | X-H torsion

> <Gold.Protein.ActiveResidues>
 PRO86   VAL89   HIS90   LEU93   THR94   ILE112  MET113  TYR115  VAL116  LEU117 
 THR118  SER119  ARG120  SER121  LEU123  ILE124  GLN192  SER194  PHE198  PHE201 
 ALA202  GLN203  PHE205  THR206  PHE209  PHE210  VAL228  ILE341  ILE343  VAL344 
 ILE345  GLU346  ASP347  TYR348  VAL349  GLN350  HIS351  LEU352  SER353  GLY354 
 TYR355  PHE357  LEU359  LYS360  GLU380  PHE381  ASN382  THR383  LEU384  TYR385 
 HIS386  TRP387  LEU390  VAL434  LEU507  ARG513  ALA516  ILE517  PHE518  GLY519 
 GLU520  THR521  MET522  VAL523  GLU524  VAL525  GLY526  ALA527  PRO528  PHE529 
 SER530  LEU531  LYS532  GLY533  LEU534  MET535  COH609 

> <Gold.Protein.RotatedAtoms>
   18.3421    6.7554    1.9968 H   0  0  0  0  0  0  0  0  0  0  0  0  # atno 1366 bound_to 1361
    5.1684  -10.0224    7.8317 H   0  0  0  0  0  0  0  0  0  0  0  0  # atno 2556 bound_to 2551
   -2.8081   -0.5113    0.5518 H   0  0  0  0  0  0  0  0  0  0  0  0  # atno 2749 bound_to 2745
    1.6068   -1.3711    3.6985 H   0  0  0  0  0  0  0  0  0  0  0  0  # atno 5077 bound_to 5068
   11.7827   -1.4195    9.2696 H   0  0  0  0  0  0  0  0  0  0  0  0  # atno 5157 bound_to 5152
   16.4486    0.0749    5.0868 H   0  0  0  0  0  0  0  0  0  0  0  0  # atno 5185 bound_to 5176
    2.7016    0.3234    2.3939 H   0  0  0  0  0  0  0  0  0  0  0  0  # atno 5712 bound_to 5703
    5.1123    3.8093    3.3206 H   0  0  0  0  0  0  0  0  0  0  0  0  # atno 8036 bound_to 8031
    0.5137   -2.2536    4.2348 LP  0  0  0  0  0  0  0  0  0  0  0  0  # atno 8267 bound_to 5068
    2.0466   -2.7731    4.0184 LP  0  0  0  0  0  0  0  0  0  0  0  0  # atno 8268 bound_to 5068
   13.0913   -2.1589    9.1939 LP  0  0  0  0  0  0  0  0  0  0  0  0  # atno 8279 bound_to 5152
   11.6500   -2.9182    9.3071 LP  0  0  0  0  0  0  0  0  0  0  0  0  # atno 8280 bound_to 5152
   14.9676    0.0426    4.8335 LP  0  0  0  0  0  0  0  0  0  0  0  0  # atno 8281 bound_to 5176
   15.9373   -1.2489    4.5920 LP  0  0  0  0  0  0  0  0  0  0  0  0  # atno 8282 bound_to 5176
    2.7266   -1.1598    2.6348 LP  0  0  0  0  0  0  0  0  0  0  0  0  # atno 8283 bound_to 5703
    1.4025   -0.2407    2.8968 LP  0  0  0  0  0  0  0  0  0  0  0  0  # atno 8284 bound_to 5703
    5.0886    5.3121    3.3476 LP  0  0  0  0  0  0  0  0  0  0  0  0  # atno 8309 bound_to 8031
    6.3895    4.4373    3.8046 LP  0  0  0  0  0  0  0  0  0  0  0  0  # atno 8310 bound_to 8031
   -3.9065    0.1758   -0.2129 LP  0  0  0  0  0  0  0  0  0  0  0  0  # atno 8323 bound_to 2745
   -3.9414   -0.0163    1.4084 LP  0  0  0  0  0  0  0  0  0  0  0  0  # atno 8324 bound_to 2745
   17.5222    7.8210    2.6723 LP  0  0  0  0  0  0  0  0  0  0  0  0  # atno 8335 bound_to 1361
   18.7340    7.0255    3.4241 LP  0  0  0  0  0  0  0  0  0  0  0  0  # atno 8336 bound_to 1361
    4.5623   -8.6480    7.7427 LP  0  0  0  0  0  0  0  0  0  0  0  0  # atno 8342 bound_to 2551
    4.7851   -9.6043    6.4380 LP  0  0  0  0  0  0  0  0  0  0  0  0  # atno 8343 bound_to 2551

