
184|LMW3_p|sdf|184|dock2
  -GOLD-   61022 2203D 1   1.00000     0.00000

 79 82  0  0  0  0  0  0  0  0  1 V2000
    5.9099    0.2602   -1.3761 O   0  0  0  0  0  0  0  0  0  0  0  0
    6.3466    0.2119   -0.2247 C   0  0  0  0  0  0  0  0  0  0  0  0
    7.0365   -1.0372    0.3420 C   0  0  0  0  0  0  0  0  0  0  0  0
    6.1054    1.3635    0.7165 C   0  0  0  0  0  0  0  0  0  0  0  0
    8.2563   -0.6013    1.2254 C   0  0  1  0  0  0  0  0  0  0  0  0
    7.5497   -1.8746   -0.8582 C   0  0  0  0  0  0  0  0  0  0  0  0
    5.9740   -1.8860    1.0556 C   0  0  0  0  0  0  0  0  0  0  0  0
    7.3830    1.7562    1.4405 C   0  0  0  0  0  0  0  0  0  0  0  0
    8.0409    0.5906    2.2284 C   0  0  2  0  0  0  0  0  0  0  0  0
    8.9531   -1.7801    1.9344 C   0  0  0  0  0  0  0  0  0  0  0  0
    9.4174    1.0034    2.8319 C   0  0  0  0  0  0  0  0  0  0  0  0
    7.1541    0.2391    3.4481 C   0  0  0  0  0  0  0  0  0  0  0  0
   10.1995   -1.3286    2.6291 C   0  0  0  0  0  0  0  0  0  0  0  0
   10.4437   -0.0544    2.9822 C   0  0  0  0  0  0  0  0  0  0  0  0
    9.6751    2.2558    3.2803 C   0  0  0  0  0  0  0  0  0  0  0  0
   11.8076    0.4031    3.4993 C   0  0  1  0  0  0  0  0  0  0  0  0
   10.9083    2.6747    4.0534 C   0  0  0  0  0  0  0  0  0  0  0  0
   11.6318    1.4553    4.6536 C   0  0  2  0  0  0  0  0  0  0  0  0
   12.7335   -0.6223    4.1767 C   0  0  0  0  0  0  0  0  0  0  0  0
   12.5701    0.9286    2.2392 C   0  0  0  0  0  0  0  0  0  0  0  0
   13.1060    1.6666    5.1178 C   0  0  2  0  0  0  0  0  0  0  0  0
   10.7848    0.9083    5.8482 C   0  0  0  0  0  0  0  0  0  0  0  0
   13.6916    0.2236    5.0348 C   0  0  0  0  0  0  0  0  0  0  0  0
   13.4038    2.3415    6.4922 C   0  0  1  0  0  0  0  0  0  0  0  0
   14.9371    2.4076    6.7365 C   0  0  0  0  0  0  0  0  0  0  0  0
   12.7982    3.7467    6.5830 C   0  0  0  0  0  0  0  0  0  0  0  0
   15.7412    2.8810    5.5195 C   0  0  0  0  0  0  0  0  0  0  0  0
   17.2202    2.8228    5.7925 C   0  0  0  0  0  0  0  0  0  0  0  0
   18.2086    3.4456    5.1172 C   0  0  0  0  0  0  0  0  0  0  0  0
   18.0093    4.2900    3.8905 C   0  0  0  0  0  0  0  0  0  0  0  0
   19.6486    3.2924    5.5470 C   0  0  0  0  0  0  0  0  0  0  0  0
   18.5859    5.5674    4.1322 O   0  0  0  0  0  0  0  0  0  0  0  0
   19.8786    4.0276    6.7399 O   0  0  0  0  0  0  0  0  0  0  0  0
    5.3691    1.0768    1.4379 H   0  0  0  0  0  0  0  0  0  0  0  0
    5.7665    2.2031    0.1461 H   0  0  0  0  0  0  0  0  0  0  0  0
    8.9065   -0.2018    0.4754 H   0  0  0  0  0  0  0  0  0  0  0  0
    8.2840   -1.3130   -1.3969 H   0  0  0  0  0  0  0  0  0  0  0  0
    6.7312   -2.1065   -1.5072 H   0  0  0  0  0  0  0  0  0  0  0  0
    7.9878   -2.7821   -0.4985 H   0  0  0  0  0  0  0  0  0  0  0  0
    4.9989   -1.5599    0.7592 H   0  0  0  0  0  0  0  0  0  0  0  0
    6.0808   -1.7747    2.1144 H   0  0  0  0  0  0  0  0  0  0  0  0
    6.1021   -2.9147    0.7903 H   0  0  0  0  0  0  0  0  0  0  0  0
    7.1523    2.5414    2.1299 H   0  0  0  0  0  0  0  0  0  0  0  0
    8.0842    2.0610    0.6920 H   0  0  0  0  0  0  0  0  0  0  0  0
    9.2072   -2.5240    1.2085 H   0  0  0  0  0  0  0  0  0  0  0  0
    8.2828   -2.1821    2.6651 H   0  0  0  0  0  0  0  0  0  0  0  0
    7.1153    1.0759    4.1137 H   0  0  0  0  0  0  0  0  0  0  0  0
    7.5689   -0.6044    3.9593 H   0  0  0  0  0  0  0  0  0  0  0  0
    6.1655    0.0030    3.1139 H   0  0  0  0  0  0  0  0  0  0  0  0
   10.9151   -2.0385    2.8505 H   0  0  0  0  0  0  0  0  0  0  0  0
    8.9728    2.9846    3.0785 H   0  0  0  0  0  0  0  0  0  0  0  0
   10.6167    3.3320    4.8457 H   0  0  0  0  0  0  0  0  0  0  0  0
   11.5781    3.1679    3.3803 H   0  0  0  0  0  0  0  0  0  0  0  0
   13.2770   -1.1817    3.4442 H   0  0  0  0  0  0  0  0  0  0  0  0
   12.1896   -1.3353    4.7605 H   0  0  0  0  0  0  0  0  0  0  0  0
   13.4372    0.3249    2.0695 H   0  0  0  0  0  0  0  0  0  0  0  0
   12.8680    1.9435    2.4002 H   0  0  0  0  0  0  0  0  0  0  0  0
   11.9269    0.8767    1.3856 H   0  0  0  0  0  0  0  0  0  0  0  0
   13.5537    2.4092    4.4908 H   0  0  0  0  0  0  0  0  0  0  0  0
   11.2359    0.0144    6.2256 H   0  0  0  0  0  0  0  0  0  0  0  0
    9.7921    0.6923    5.5122 H   0  0  0  0  0  0  0  0  0  0  0  0
   10.7465    1.6436    6.6245 H   0  0  0  0  0  0  0  0  0  0  0  0
   14.6605    0.2491    4.5814 H   0  0  0  0  0  0  0  0  0  0  0  0
   13.7891   -0.1979    6.0134 H   0  0  0  0  0  0  0  0  0  0  0  0
   12.9467    1.7406    7.2504 H   0  0  0  0  0  0  0  0  0  0  0  0
   15.2778    1.4296    7.0055 H   0  0  0  0  0  0  0  0  0  0  0  0
   15.0968    3.1266    7.5126 H   0  0  0  0  0  0  0  0  0  0  0  0
   11.7363    3.6713    6.6908 H   0  0  0  0  0  0  0  0  0  0  0  0
   13.0283    4.2926    5.6919 H   0  0  0  0  0  0  0  0  0  0  0  0
   13.2073    4.2574    7.4297 H   0  0  0  0  0  0  0  0  0  0  0  0
   15.4674    3.8897    5.2904 H   0  0  0  0  0  0  0  0  0  0  0  0
   15.5218    2.2356    4.6947 H   0  0  0  0  0  0  0  0  0  0  0  0
   17.5129    2.2374    6.5904 H   0  0  0  0  0  0  0  0  0  0  0  0
   16.9636    4.3966    3.6901 H   0  0  0  0  0  0  0  0  0  0  0  0
   18.4742    3.8285    3.0444 H   0  0  0  0  0  0  0  0  0  0  0  0
   20.2905    3.6607    4.7741 H   0  0  0  0  0  0  0  0  0  0  0  0
   19.8543    2.2577    5.7260 H   0  0  0  0  0  0  0  0  0  0  0  0
   18.5230    6.1078    3.3291 H   0  0  0  0  0  0  0  0  0  0  0  0
   20.8113    3.9478    6.9942 H   0  0  0  0  0  0  0  0  0  0  0  0
  1  2  2  0  0  0  0
  2  3  1  0  0  0  0
  2  4  1  0  0  0  0
  3  5  1  0  0  0  0
  3  6  1  0  0  0  0
  3  7  1  0  0  0  0
  4  8  1  0  0  0  0
  4 34  1  0  0  0  0
  4 35  1  0  0  0  0
  5  9  1  0  0  0  0
  5 10  1  0  0  0  0
  5 36  1  0  0  0  0
  6 37  1  0  0  0  0
  6 38  1  0  0  0  0
  6 39  1  0  0  0  0
  7 40  1  0  0  0  0
  7 41  1  0  0  0  0
  7 42  1  0  0  0  0
  8  9  1  0  0  0  0
  8 43  1  0  0  0  0
  8 44  1  0  0  0  0
  9 11  1  0  0  0  0
  9 12  1  0  0  0  0
 10 13  1  0  0  0  0
 10 45  1  0  0  0  0
 10 46  1  0  0  0  0
 11 14  1  0  0  0  0
 11 15  2  0  0  0  0
 12 47  1  0  0  0  0
 12 48  1  0  0  0  0
 12 49  1  0  0  0  0
 13 14  2  0  0  0  0
 13 50  1  0  0  0  0
 14 16  1  0  0  0  0
 15 17  1  0  0  0  0
 15 51  1  0  0  0  0
 16 18  1  0  0  0  0
 16 19  1  0  0  0  0
 16 20  1  0  0  0  0
 17 18  1  0  0  0  0
 17 52  1  0  0  0  0
 17 53  1  0  0  0  0
 18 21  1  0  0  0  0
 18 22  1  0  0  0  0
 19 23  1  0  0  0  0
 19 54  1  0  0  0  0
 19 55  1  0  0  0  0
 20 56  1  0  0  0  0
 20 57  1  0  0  0  0
 20 58  1  0  0  0  0
 21 24  1  0  0  0  0
 21 23  1  0  0  0  0
 21 59  1  0  0  0  0
 22 60  1  0  0  0  0
 22 61  1  0  0  0  0
 22 62  1  0  0  0  0
 23 63  1  0  0  0  0
 23 64  1  0  0  0  0
 24 25  1  0  0  0  0
 24 26  1  0  0  0  0
 24 65  1  0  0  0  0
 25 27  1  0  0  0  0
 25 66  1  0  0  0  0
 25 67  1  0  0  0  0
 26 68  1  0  0  0  0
 26 69  1  0  0  0  0
 26 70  1  0  0  0  0
 27 28  1  0  0  0  0
 27 71  1  0  0  0  0
 27 72  1  0  0  0  0
 28 29  2  0  0  0  0
 28 73  1  0  0  0  0
 29 30  1  0  0  0  0
 29 31  1  0  0  0  0
 30 32  1  0  0  0  0
 30 74  1  0  0  0  0
 30 75  1  0  0  0  0
 31 33  1  0  0  0  0
 31 76  1  0  0  0  0
 31 77  1  0  0  0  0
 32 78  1  0  0  0  0
 33 79  1  0  0  0  0
M  END
>  <Code-name>
184

>  <Compound>
Ganoderiol F

>  <Specie>
ganoderma lucidum

>  <Reference>
MORADALI et al., 2007

>  <Organism>
Antitumoral Activity

>  <Smiles>
C[C@H](CCC=C(CO)CO)[C@@H](CC1)[C@]2(C)[C@]1(C)C1=CC[C@@H](C(C)(C)C(CC3)=O)[C@@]3(C)C1=CC2

>  <MMFF94 Energy>
88.32

>  <Total Molweight>
454.692

>  <Molweight>
454.692

>  <Monoisotopic Mass>
454.344695

>  <cLogP>
6.4365

>  <cLogS>
-5.262

>  <H-Acceptors>
3

>  <H-Donors>
2

>  <Total Surface Area>
354.38

>  <Relative PSA>
0.11073

>  <Polar Surface Area>
57.53

>  <Druglikeness>
-5.5305

>  <Mutagenic>
none

>  <Tumorigenic>
none

>  <Reproductive Effective>
none

>  <Irritant>
none

>  <Nasty Functions>


>  <Shape Index>
0.51515

>  <Molecular Flexibility>
0.34546

>  <Molecular Complexity>
0.98466

>  <Fragments>
1

>  <Non-H Atoms>
33

>  <Non-C/H Atoms>
3

>  <Metal-Atoms>
0

>  <Electronegative Atoms>
3

>  <Stereo Centers>
6

>  <Rotatable Bonds>
6

>  <Rings Closures>
4

>  <Small Rings>
4

>  <Aromatic Rings>
0

>  <Aromatic Atoms>
0

>  <sp3-Atoms>
25

>  <Symmetric atoms>
3

>  <Amides>
0

>  <Amines>
0

>  <Alkyl-Amines>
0

>  <Aromatic Amines>
0

>  <Aromatic Nitrogens>
0

>  <Basic Nitrogens>
0

>  <Acidic Oxygens>
0

>  <Stereo Configuration>
this enantiomer

> <Gold.Version>
5.8.1

> <Gold.Id.Protein>
ID_2|Prot_COX2_5IKQ_Alig|mol2

> <Gold.Goldscore.Fitness>
-29.4047

> <Gold.Goldscore.Internal.Vdw>
-37.9650

> <Gold.Goldscore.Internal.Torsion>
-8.7505

> <Gold.Goldscore.External.Vdw>
-10.2440

> <Gold.Goldscore.Internal.HBond>
0.0000

> <Gold.Goldscore.External.HBond>
1.1922

> <Gold.Goldscore.Internal.Correction>
-30.2040

> <Gold.Goldscore.Hbonds>
donor molecule, donor type, donor heavy atom, donor atom, acceptor molecule, acceptor atom, score
      L1  H    32    78       P1  1361  0.60

> <Gold.Goldscore.Internal.Vdw.Weighted>
-37.9650

> <Gold.Goldscore.Internal.Torsion.Weighted>
-8.7505

> <Gold.Goldscore.External.Vdw.Weighted>
-14.0855

> <Gold.Goldscore.Internal.HBond.Weighted>
0.0000

> <Gold.Goldscore.External.HBond.Weighted>
1.1922

> <Gold.Goldscore.Internal.Correction.Weighted>
-30.2040

> <Gold.Protein.RotatedTorsions>
[ 5077 5068 5067 5065 ] final -171.31 input  179.94 | X-H torsion
[ 5157 5152 5151 5148 ] final -170.89 input -179.92 | X-H torsion
[ 5185 5176 5175 5173 ] final  -74.47 input -179.99 | X-H torsion
[ 5712 5703 5702 5700 ] final  115.60 input  180.00 | X-H torsion
[ 8036 8031 8030 8027 ] final -158.87 input -179.94 | X-H torsion
[ 2749 2745 2743 2740 ] final -109.12 input  -60.05 | X-H torsion
[ 1366 1361 1360 1357 ] final   -4.20 input  -60.09 | X-H torsion
[ 2556 2551 2550 2547 ] final   33.62 input   59.97 | X-H torsion

> <Gold.Protein.ActiveResidues>
 PRO86   VAL89   HIS90   LEU93   THR94   ILE112  MET113  TYR115  VAL116  LEU117 
 THR118  SER119  ARG120  SER121  LEU123  ILE124  GLN192  SER194  PHE198  PHE201 
 ALA202  GLN203  PHE205  THR206  PHE209  PHE210  VAL228  ILE341  ILE343  VAL344 
 ILE345  GLU346  ASP347  TYR348  VAL349  GLN350  HIS351  LEU352  SER353  GLY354 
 TYR355  PHE357  LEU359  LYS360  GLU380  PHE381  ASN382  THR383  LEU384  TYR385 
 HIS386  TRP387  LEU390  VAL434  LEU507  ARG513  ALA516  ILE517  PHE518  GLY519 
 GLU520  THR521  MET522  VAL523  GLU524  VAL525  GLY526  ALA527  PRO528  PHE529 
 SER530  LEU531  LYS532  GLY533  LEU534  MET535  COH609 

> <Gold.Protein.RotatedAtoms>
   17.6289    7.6598    2.4241 H   0  0  0  0  0  0  0  0  0  0  0  0  # atno 1366 bound_to 1361
    5.1780  -10.0686    7.7618 H   0  0  0  0  0  0  0  0  0  0  0  0  # atno 2556 bound_to 2551
   -3.0220   -0.4613    1.1173 H   0  0  0  0  0  0  0  0  0  0  0  0  # atno 2749 bound_to 2745
    2.0130   -1.6643    3.6948 H   0  0  0  0  0  0  0  0  0  0  0  0  # atno 5077 bound_to 5068
   12.2765   -1.3392    9.2286 H   0  0  0  0  0  0  0  0  0  0  0  0  # atno 5157 bound_to 5152
   16.6039   -0.3643    4.9813 H   0  0  0  0  0  0  0  0  0  0  0  0  # atno 5185 bound_to 5176
    3.0431   -0.4729    2.4023 H   0  0  0  0  0  0  0  0  0  0  0  0  # atno 5712 bound_to 5703
    6.0091    3.8880    3.6306 H   0  0  0  0  0  0  0  0  0  0  0  0  # atno 8036 bound_to 8031
    0.5478   -1.6913    4.0321 LP  0  0  0  0  0  0  0  0  0  0  0  0  # atno 8267 bound_to 5068
    1.5261   -2.9844    4.2256 LP  0  0  0  0  0  0  0  0  0  0  0  0  # atno 8268 bound_to 5068
   12.8781   -2.7186    9.2053 LP  0  0  0  0  0  0  0  0  0  0  0  0  # atno 8279 bound_to 5152
   11.2726   -2.4545    9.3448 LP  0  0  0  0  0  0  0  0  0  0  0  0  # atno 8280 bound_to 5152
   15.3381    0.4457    4.9990 LP  0  0  0  0  0  0  0  0  0  0  0  0  # atno 8281 bound_to 5176
   15.3803   -1.1247    4.5532 LP  0  0  0  0  0  0  0  0  0  0  0  0  # atno 8282 bound_to 5176
    1.7352   -1.0164    2.9050 LP  0  0  0  0  0  0  0  0  0  0  0  0  # atno 8283 bound_to 5703
    1.9840    0.5716    2.6167 LP  0  0  0  0  0  0  0  0  0  0  0  0  # atno 8284 bound_to 5703
    4.6254    4.2824    3.1949 LP  0  0  0  0  0  0  0  0  0  0  0  0  # atno 8309 bound_to 8031
    5.7767    5.3726    3.5854 LP  0  0  0  0  0  0  0  0  0  0  0  0  # atno 8310 bound_to 8031
   -3.2818   -0.1705   -0.3357 LP  0  0  0  0  0  0  0  0  0  0  0  0  # atno 8323 bound_to 2745
   -4.3100    0.2701    0.8539 LP  0  0  0  0  0  0  0  0  0  0  0  0  # atno 8324 bound_to 2745
   18.5641    7.2410    3.5260 LP  0  0  0  0  0  0  0  0  0  0  0  0  # atno 8335 bound_to 1361
   18.5452    6.5235    2.0592 LP  0  0  0  0  0  0  0  0  0  0  0  0  # atno 8336 bound_to 1361
    4.5940   -8.6835    7.8314 LP  0  0  0  0  0  0  0  0  0  0  0  0  # atno 8342 bound_to 2551
    4.7420   -9.5135    6.4329 LP  0  0  0  0  0  0  0  0  0  0  0  0  # atno 8343 bound_to 2551

