
187|LMW3_p|sdf|187|dock1
  -GOLD-   61022 2253D 1   1.00000     0.00000

 80 83  0  0  0  0  0  0  0  0  2 V2000
    8.6299    3.1951    3.4787 O   0  0  0  0  0  0  0  0  0  0  0  0
    9.5846    2.4213    3.4213 C   0  0  0  0  0  0  0  0  0  0  0  0
    9.4393    1.0306    2.8136 C   0  0  0  0  0  0  0  0  0  0  0  0
   10.9203    2.8856    3.9764 C   0  0  0  0  0  0  0  0  0  0  0  0
   10.5139    0.1888    2.8359 C   0  0  0  0  0  0  0  0  0  0  0  0
    8.0507    0.6317    2.2186 C   0  0  2  0  0  0  0  0  0  0  0  0
   11.7367    1.7078    4.4923 C   0  0  1  0  0  0  0  0  0  0  0  0
   11.8948    0.6812    3.3087 C   0  0  1  0  0  0  0  0  0  0  0  0
   10.4459   -1.2125    2.2574 C   0  0  1  0  0  0  0  0  0  0  0  0
    8.2619   -0.5614    1.2043 C   0  0  1  0  0  0  0  0  0  0  0  0
    7.3762    1.7634    1.3888 C   0  0  0  0  0  0  0  0  0  0  0  0
    7.1715    0.2871    3.4417 C   0  0  0  0  0  0  0  0  0  0  0  0
   13.2258    2.0159    4.8587 C   0  0  1  0  0  0  0  0  0  0  0  0
   11.0052    1.1083    5.7368 C   0  0  0  0  0  0  0  0  0  0  0  0
   12.9070   -0.2887    3.9714 C   0  0  2  0  0  0  0  0  0  0  0  0
   12.5495    1.2701    2.0149 C   0  0  0  0  0  0  0  0  0  0  0  0
   10.9957   -2.1519    3.1748 O   0  0  0  0  0  0  0  0  0  0  0  0
    9.0404   -1.6870    1.8883 C   0  0  0  0  0  0  0  0  0  0  0  0
    7.0218   -1.0583    0.3844 C   0  0  0  0  0  0  0  0  0  0  0  0
    6.0860    1.3466    0.6957 C   0  0  0  0  0  0  0  0  0  0  0  0
   13.5725    2.6704    6.2288 C   0  0  1  0  0  0  0  0  0  0  0  0
   13.9153    0.6309    4.6823 C   0  0  0  0  0  0  0  0  0  0  0  0
   13.5795   -1.1362    3.0546 O   0  0  0  0  0  0  0  0  0  0  0  0
    6.2929    0.1574   -0.2030 C   0  0  0  0  0  0  0  0  0  0  0  0
    6.0078   -1.9023    1.1689 C   0  0  0  0  0  0  0  0  0  0  0  0
    7.5091   -1.9251   -0.8078 C   0  0  0  0  0  0  0  0  0  0  0  0
   15.1028    2.8671    6.3661 C   0  0  0  0  0  0  0  0  0  0  0  0
   12.8848    4.0292    6.4173 C   0  0  0  0  0  0  0  0  0  0  0  0
    5.8051    0.1493   -1.3343 O   0  0  0  0  0  0  0  0  0  0  0  0
   15.7657    3.4258    5.1117 C   0  0  0  0  0  0  0  0  0  0  0  0
   15.2010    4.2331    4.3759 O   0  0  0  0  0  0  0  0  0  0  0  0
   17.1815    2.9426    4.8471 C   0  0  0  0  0  0  0  0  0  0  0  0
   17.9084    3.7534    3.7667 C   0  0  2  0  0  0  0  0  0  0  0  0
   19.1425    3.0066    3.3207 C   0  0  0  0  0  0  0  0  0  0  0  0
   18.3104    5.1376    4.2688 C   0  0  0  0  0  0  0  0  0  0  0  0
   20.2835    3.4364    3.2849 O   0  0  0  0  0  0  0  0  0  0  0  0
   18.8739    1.7467    2.9290 O   0  5  0  0  0  0  0  0  0  0  0  0
   10.7462    3.5695    4.7806 H   0  0  0  0  0  0  0  0  0  0  0  0
   11.4686    3.3621    3.1907 H   0  0  0  0  0  0  0  0  0  0  0  0
   11.0109   -1.1583    1.3504 H   0  0  0  0  0  0  0  0  0  0  0  0
    8.8455   -0.1439    0.4105 H   0  0  0  0  0  0  0  0  0  0  0  0
    8.0686    2.0890    0.6409 H   0  0  0  0  0  0  0  0  0  0  0  0
    7.1170    2.5381    2.0799 H   0  0  0  0  0  0  0  0  0  0  0  0
    7.6064   -0.5331    3.9737 H   0  0  0  0  0  0  0  0  0  0  0  0
    6.1902    0.0177    3.1110 H   0  0  0  0  0  0  0  0  0  0  0  0
    7.1092    1.1381    4.0873 H   0  0  0  0  0  0  0  0  0  0  0  0
   13.5668    2.8083    4.2257 H   0  0  0  0  0  0  0  0  0  0  0  0
   10.1271    0.5869    5.4174 H   0  0  0  0  0  0  0  0  0  0  0  0
   10.7282    1.8988    6.4027 H   0  0  0  0  0  0  0  0  0  0  0  0
   11.6595    0.4290    6.2421 H   0  0  0  0  0  0  0  0  0  0  0  0
   12.3951   -0.9604    4.6284 H   0  0  0  0  0  0  0  0  0  0  0  0
   13.2027    0.5414    1.5824 H   0  0  0  0  0  0  0  0  0  0  0  0
   13.1093    2.1467    2.2658 H   0  0  0  0  0  0  0  0  0  0  0  0
   11.7840    1.5248    1.3120 H   0  0  0  0  0  0  0  0  0  0  0  0
   10.9697   -3.0392    2.7836 H   0  0  0  0  0  0  0  0  0  0  0  0
    8.5236   -1.9842    2.7768 H   0  0  0  0  0  0  0  0  0  0  0  0
    9.1184   -2.5149    1.2150 H   0  0  0  0  0  0  0  0  0  0  0  0
    5.7280    2.1663    0.1085 H   0  0  0  0  0  0  0  0  0  0  0  0
    5.3768    1.0744    1.4492 H   0  0  0  0  0  0  0  0  0  0  0  0
   13.2143    2.0017    6.9834 H   0  0  0  0  0  0  0  0  0  0  0  0
   14.1724    0.2244    5.6381 H   0  0  0  0  0  0  0  0  0  0  0  0
   14.8152    0.7233    4.1109 H   0  0  0  0  0  0  0  0  0  0  0  0
   14.2065   -1.6993    3.5349 H   0  0  0  0  0  0  0  0  0  0  0  0
    5.0200   -1.5332    0.9871 H   0  0  0  0  0  0  0  0  0  0  0  0
    6.2250   -1.8398    2.2147 H   0  0  0  0  0  0  0  0  0  0  0  0
    6.0713   -2.9222    0.8516 H   0  0  0  0  0  0  0  0  0  0  0  0
    7.8752   -2.8614   -0.4417 H   0  0  0  0  0  0  0  0  0  0  0  0
    8.2937   -1.4126   -1.3241 H   0  0  0  0  0  0  0  0  0  0  0  0
    6.6942   -2.0985   -1.4792 H   0  0  0  0  0  0  0  0  0  0  0  0
   15.5464    1.9191    6.5884 H   0  0  0  0  0  0  0  0  0  0  0  0
   15.2566    3.5836    7.1457 H   0  0  0  0  0  0  0  0  0  0  0  0
   11.8304    3.8833    6.5261 H   0  0  0  0  0  0  0  0  0  0  0  0
   13.0733    4.6458    5.5634 H   0  0  0  0  0  0  0  0  0  0  0  0
   13.2712    4.5060    7.2939 H   0  0  0  0  0  0  0  0  0  0  0  0
   17.1383    1.9207    4.5330 H   0  0  0  0  0  0  0  0  0  0  0  0
   17.7320    3.0625    5.7568 H   0  0  0  0  0  0  0  0  0  0  0  0
   17.2337    3.8828    2.9464 H   0  0  0  0  0  0  0  0  0  0  0  0
   17.4312    5.7128    4.4715 H   0  0  0  0  0  0  0  0  0  0  0  0
   18.8955    5.6320    3.5217 H   0  0  0  0  0  0  0  0  0  0  0  0
   18.8862    5.0386    5.1652 H   0  0  0  0  0  0  0  0  0  0  0  0
  1  2  2  0  0  0  0
  2  3  1  0  0  0  0
  2  4  1  0  0  0  0
  3  5  2  0  0  0  0
  3  6  1  0  0  0  0
  4  7  1  0  0  0  0
  4 38  1  0  0  0  0
  4 39  1  0  0  0  0
  5  8  1  0  0  0  0
  5  9  1  0  0  0  0
  6 10  1  0  0  0  0
  6 11  1  0  0  0  0
  6 12  1  0  0  0  0
  7 13  1  0  0  0  0
  7 14  1  0  0  0  0
  7  8  1  0  0  0  0
  8 15  1  0  0  0  0
  8 16  1  0  0  0  0
  9 17  1  0  0  0  0
  9 18  1  0  0  0  0
  9 40  1  0  0  0  0
 10 19  1  0  0  0  0
 10 18  1  0  0  0  0
 10 41  1  0  0  0  0
 11 20  1  0  0  0  0
 11 42  1  0  0  0  0
 11 43  1  0  0  0  0
 12 44  1  0  0  0  0
 12 45  1  0  0  0  0
 12 46  1  0  0  0  0
 13 21  1  0  0  0  0
 13 22  1  0  0  0  0
 13 47  1  0  0  0  0
 14 48  1  0  0  0  0
 14 49  1  0  0  0  0
 14 50  1  0  0  0  0
 15 23  1  0  0  0  0
 15 22  1  0  0  0  0
 15 51  1  0  0  0  0
 16 52  1  0  0  0  0
 16 53  1  0  0  0  0
 16 54  1  0  0  0  0
 17 55  1  0  0  0  0
 18 56  1  0  0  0  0
 18 57  1  0  0  0  0
 19 24  1  0  0  0  0
 19 25  1  0  0  0  0
 19 26  1  0  0  0  0
 20 24  1  0  0  0  0
 20 58  1  0  0  0  0
 20 59  1  0  0  0  0
 21 27  1  0  0  0  0
 21 28  1  0  0  0  0
 21 60  1  0  0  0  0
 22 61  1  0  0  0  0
 22 62  1  0  0  0  0
 23 63  1  0  0  0  0
 24 29  2  0  0  0  0
 25 64  1  0  0  0  0
 25 65  1  0  0  0  0
 25 66  1  0  0  0  0
 26 67  1  0  0  0  0
 26 68  1  0  0  0  0
 26 69  1  0  0  0  0
 27 30  1  0  0  0  0
 27 70  1  0  0  0  0
 27 71  1  0  0  0  0
 28 72  1  0  0  0  0
 28 73  1  0  0  0  0
 28 74  1  0  0  0  0
 30 31  2  0  0  0  0
 30 32  1  0  0  0  0
 32 33  1  0  0  0  0
 32 75  1  0  0  0  0
 32 76  1  0  0  0  0
 33 34  1  0  0  0  0
 33 35  1  0  0  0  0
 33 77  1  0  0  0  0
 34 36  2  0  0  0  0
 34 37  1  0  0  0  0
 35 78  1  0  0  0  0
 35 79  1  0  0  0  0
 35 80  1  0  0  0  0
M  CHG  1  37  -1
M  END
>  <Code-name>
187

>  <Compound>
Ganoderic acid A

>  <Specie>
ganoderma lucidum

>  <Reference>
Paterson 2006

>  <Organism>
N/A

>  <Smiles>
C[C@H](CC(C[C@@H](C)C(O)=O)=O)[C@@H](C[C@@H]1O)[C@@](C)(C2)[C@]1(C)C([C@H](C[C@@H](C1(C)C)[C@]3(C)CCC1=O)O)=C3C2=O

>  <MMFF94 Energy>
83.901

>  <Total Molweight>
516.672

>  <Molweight>
516.672

>  <Monoisotopic Mass>
516.308705

>  <cLogP>
3.6875

>  <cLogS>
-4.749

>  <H-Acceptors>
7

>  <H-Donors>
3

>  <Total Surface Area>
371.25

>  <Relative PSA>
0.24636

>  <Polar Surface Area>
128.97

>  <Druglikeness>
-4.0746

>  <Mutagenic>
none

>  <Tumorigenic>
none

>  <Reproductive Effective>
none

>  <Irritant>
none

>  <Nasty Functions>


>  <Shape Index>
0.45946

>  <Molecular Flexibility>
0.37793

>  <Molecular Complexity>
1.0365

>  <Fragments>
1

>  <Non-H Atoms>
37

>  <Non-C/H Atoms>
7

>  <Metal-Atoms>
0

>  <Electronegative Atoms>
7

>  <Stereo Centers>
9

>  <Rotatable Bonds>
6

>  <Rings Closures>
4

>  <Small Rings>
4

>  <Aromatic Rings>
0

>  <Aromatic Atoms>
0

>  <sp3-Atoms>
27

>  <Symmetric atoms>
1

>  <Amides>
0

>  <Amines>
0

>  <Alkyl-Amines>
0

>  <Aromatic Amines>
0

>  <Aromatic Nitrogens>
0

>  <Basic Nitrogens>
0

>  <Acidic Oxygens>
1

>  <Stereo Configuration>
this enantiomer

> <Gold.Version>
5.8.1

> <Gold.Id.Protein>
ID_2|Prot_COX2_5IKQ_Alig|mol2

> <Gold.Goldscore.Fitness>
-31.7007

> <Gold.Goldscore.Internal.Vdw>
-32.0255

> <Gold.Goldscore.Internal.Torsion>
-9.6363

> <Gold.Goldscore.External.Vdw>
-18.3021

> <Gold.Goldscore.Internal.HBond>
0.0000

> <Gold.Goldscore.External.HBond>
3.2408

> <Gold.Goldscore.Internal.Correction>
-31.8858

> <Gold.Goldscore.Hbonds>
donor molecule, donor type, donor heavy atom, donor atom, acceptor molecule, acceptor atom, score
      P1  H  1374  1386       L1    31  0.53
      P1  H  8031  8036       L1     1  0.02

> <Gold.Goldscore.Internal.Vdw.Weighted>
-32.0255

> <Gold.Goldscore.Internal.Torsion.Weighted>
-9.6363

> <Gold.Goldscore.External.Vdw.Weighted>
-25.1654

> <Gold.Goldscore.Internal.HBond.Weighted>
0.0000

> <Gold.Goldscore.External.HBond.Weighted>
3.2408

> <Gold.Goldscore.Internal.Correction.Weighted>
-31.8858

> <Gold.Protein.RotatedTorsions>
[ 5077 5068 5067 5065 ] final  106.83 input  179.94 | X-H torsion
[ 5157 5152 5151 5148 ] final -167.93 input -179.92 | X-H torsion
[ 5185 5176 5175 5173 ] final  -57.93 input -179.99 | X-H torsion
[ 5712 5703 5702 5700 ] final  133.40 input  180.00 | X-H torsion
[ 8036 8031 8030 8027 ] final -132.85 input -179.94 | X-H torsion
[ 2749 2745 2743 2740 ] final  168.73 input  -60.05 | X-H torsion
[ 1366 1361 1360 1357 ] final   17.97 input  -60.09 | X-H torsion
[ 2556 2551 2550 2547 ] final   86.51 input   59.97 | X-H torsion

> <Gold.Protein.ActiveResidues>
 PRO86   VAL89   HIS90   LEU93   THR94   ILE112  MET113  TYR115  VAL116  LEU117 
 THR118  SER119  ARG120  SER121  LEU123  ILE124  GLN192  SER194  PHE198  PHE201 
 ALA202  GLN203  PHE205  THR206  PHE209  PHE210  VAL228  ILE341  ILE343  VAL344 
 ILE345  GLU346  ASP347  TYR348  VAL349  GLN350  HIS351  LEU352  SER353  GLY354 
 TYR355  PHE357  LEU359  LYS360  GLU380  PHE381  ASN382  THR383  LEU384  TYR385 
 HIS386  TRP387  LEU390  VAL434  LEU507  ARG513  ALA516  ILE517  PHE518  GLY519 
 GLU520  THR521  MET522  VAL523  GLU524  VAL525  GLY526  ALA527  PRO528  PHE529 
 SER530  LEU531  LYS532  GLY533  LEU534  MET535  COH609 

> <Gold.Protein.RotatedAtoms>
   17.6696    7.4943    2.1726 H   0  0  0  0  0  0  0  0  0  0  0  0  # atno 1366 bound_to 1361
    5.0986  -10.1528    7.0676 H   0  0  0  0  0  0  0  0  0  0  0  0  # atno 2556 bound_to 2551
   -2.9356   -0.3764    0.0865 H   0  0  0  0  0  0  0  0  0  0  0  0  # atno 2749 bound_to 2745
    1.0266   -1.3994    3.8580 H   0  0  0  0  0  0  0  0  0  0  0  0  # atno 5077 bound_to 5068
   12.2363   -1.3337    9.2321 H   0  0  0  0  0  0  0  0  0  0  0  0  # atno 5157 bound_to 5152
   16.5774   -0.5797    4.9158 H   0  0  0  0  0  0  0  0  0  0  0  0  # atno 5185 bound_to 5176
    3.0440   -0.2314    2.3692 H   0  0  0  0  0  0  0  0  0  0  0  0  # atno 5712 bound_to 5703
    6.2026    4.1784    3.6955 H   0  0  0  0  0  0  0  0  0  0  0  0  # atno 8036 bound_to 8031
    0.9402   -2.8270    4.3225 LP  0  0  0  0  0  0  0  0  0  0  0  0  # atno 8267 bound_to 5068
    2.3149   -2.1659    3.7397 LP  0  0  0  0  0  0  0  0  0  0  0  0  # atno 8268 bound_to 5068
   12.9079   -2.6802    9.2032 LP  0  0  0  0  0  0  0  0  0  0  0  0  # atno 8279 bound_to 5152
   11.2910   -2.4995    9.3427 LP  0  0  0  0  0  0  0  0  0  0  0  0  # atno 8280 bound_to 5152
   15.5854    0.5402    5.0592 LP  0  0  0  0  0  0  0  0  0  0  0  0  # atno 8281 bound_to 5176
   15.1649   -0.9605    4.5716 LP  0  0  0  0  0  0  0  0  0  0  0  0  # atno 8282 bound_to 5176
    1.9773   -1.1718    2.8553 LP  0  0  0  0  0  0  0  0  0  0  0  0  # atno 8283 bound_to 5703
    1.7408    0.4371    2.7060 LP  0  0  0  0  0  0  0  0  0  0  0  0  # atno 8284 bound_to 5703
    4.7929    3.8968    3.2558 LP  0  0  0  0  0  0  0  0  0  0  0  0  # atno 8309 bound_to 8031
    5.3770    5.4098    3.4467 LP  0  0  0  0  0  0  0  0  0  0  0  0  # atno 8310 bound_to 8031
   -4.2592    0.3200    0.2486 LP  0  0  0  0  0  0  0  0  0  0  0  0  # atno 8323 bound_to 2745
   -3.4360   -0.3221    1.5042 LP  0  0  0  0  0  0  0  0  0  0  0  0  # atno 8324 bound_to 2745
   18.3060    7.4957    3.5361 LP  0  0  0  0  0  0  0  0  0  0  0  0  # atno 8335 bound_to 1361
   18.7545    6.4669    2.3500 LP  0  0  0  0  0  0  0  0  0  0  0  0  # atno 8336 bound_to 1361
    4.9543   -9.2881    8.2905 LP  0  0  0  0  0  0  0  0  0  0  0  0  # atno 8342 bound_to 2551
    4.4767   -8.8082    6.8045 LP  0  0  0  0  0  0  0  0  0  0  0  0  # atno 8343 bound_to 2551

