
188|LMW3_p|sdf|188|dock1
  -GOLD-   61022 2273D 1   1.00000     0.00000

 82 85  0  0  0  0  0  0  0  0  2 V2000
   11.4584   -1.8811    3.0972 O   0  0  0  0  0  0  0  0  0  0  0  0
   11.5761   -0.7234    3.4982 C   0  0  0  0  0  0  0  0  0  0  0  0
   10.4249    0.2569    3.3096 C   0  0  0  0  0  0  0  0  0  0  0  0
   12.9341   -0.2483    4.1202 C   0  0  1  0  0  0  0  0  0  0  0  0
   10.5940    1.4821    3.8589 C   0  0  0  0  0  0  0  0  0  0  0  0
    9.1983   -0.1138    2.4323 C   0  0  2  0  0  0  0  0  0  0  0  0
   13.9602   -0.8318    3.3034 O   0  0  0  0  0  0  0  0  0  0  0  0
   13.0523    1.2984    4.1807 C   0  0  1  0  0  0  0  0  0  0  0  0
    9.7984    2.5890    3.2683 C   0  0  0  0  0  0  0  0  0  0  0  0
   11.6997    1.7688    4.8305 C   0  0  1  0  0  0  0  0  0  0  0  0
    8.0176    0.8355    2.8891 C   0  0  1  0  0  0  0  0  0  0  0  0
    8.7139   -1.5744    2.6574 C   0  0  0  0  0  0  0  0  0  0  0  0
    9.6422    0.0652    0.9659 C   0  0  0  0  0  0  0  0  0  0  0  0
   14.2952   -2.1189    3.6127 C   0  0  0  0  0  0  0  0  0  0  0  0
   14.1269    1.9257    5.1519 C   0  0  1  0  0  0  0  0  0  0  0  0
   13.2744    1.8734    2.7477 C   0  0  0  0  0  0  0  0  0  0  0  0
   10.3178    3.6905    3.1065 O   0  0  0  0  0  0  0  0  0  0  0  0
    8.4149    2.3098    2.7391 C   0  0  0  0  0  0  0  0  0  0  0  0
   12.0555    3.1718    5.3065 C   0  0  0  0  0  0  0  0  0  0  0  0
   11.3052    1.0793    6.1770 C   0  0  0  0  0  0  0  0  0  0  0  0
    6.5782    0.5334    2.3430 C   0  0  0  0  0  0  0  0  0  0  0  0
    7.3797   -1.9059    2.0055 C   0  0  0  0  0  0  0  0  0  0  0  0
   13.7003   -2.8332    4.4065 O   0  0  0  0  0  0  0  0  0  0  0  0
   15.5337   -2.5205    2.8721 C   0  0  0  0  0  0  0  0  0  0  0  0
   15.6268    2.0651    4.7268 C   0  0  1  0  0  0  0  0  0  0  0  0
   13.5456    3.3427    5.4367 C   0  0  0  0  0  0  0  0  0  0  0  0
   11.2537    4.0163    5.6847 O   0  0  0  0  0  0  0  0  0  0  0  0
    6.3035   -0.9685    2.4808 C   0  0  0  0  0  0  0  0  0  0  0  0
    6.3271    0.9322    0.8810 C   0  0  0  0  0  0  0  0  0  0  0  0
    5.5324    1.2892    3.2018 C   0  0  0  0  0  0  0  0  0  0  0  0
   16.4571    2.7114    5.8645 C   0  0  0  0  0  0  0  0  0  0  0  0
   16.2731    0.7337    4.3423 C   0  0  0  0  0  0  0  0  0  0  0  0
    5.2297   -1.4123    2.8876 O   0  0  0  0  0  0  0  0  0  0  0  0
   17.8907    3.0283    5.4636 C   0  0  0  0  0  0  0  0  0  0  0  0
   18.8352    2.5216    6.0678 O   0  0  0  0  0  0  0  0  0  0  0  0
   18.0836    3.9886    4.3021 C   0  0  0  0  0  0  0  0  0  0  0  0
   19.2541    3.6029    3.3900 C   0  0  2  0  0  0  0  0  0  0  0  0
   19.4975    4.6772    2.3588 C   0  0  0  0  0  0  0  0  0  0  0  0
   19.0274    2.2683    2.6854 C   0  0  0  0  0  0  0  0  0  0  0  0
   19.2382    4.6033    1.1695 O   0  0  0  0  0  0  0  0  0  0  0  0
   20.0127    5.8107    2.8729 O   0  5  0  0  0  0  0  0  0  0  0  0
   13.0172   -0.5635    5.1393 H   0  0  0  0  0  0  0  0  0  0  0  0
    7.8940    0.5980    3.9251 H   0  0  0  0  0  0  0  0  0  0  0  0
    8.6201   -1.7364    3.7110 H   0  0  0  0  0  0  0  0  0  0  0  0
    9.4422   -2.2100    2.1986 H   0  0  0  0  0  0  0  0  0  0  0  0
    9.5535    1.0952    0.6897 H   0  0  0  0  0  0  0  0  0  0  0  0
    9.0203   -0.5295    0.3298 H   0  0  0  0  0  0  0  0  0  0  0  0
   10.6607   -0.2457    0.8610 H   0  0  0  0  0  0  0  0  0  0  0  0
   14.2368    1.2346    5.9613 H   0  0  0  0  0  0  0  0  0  0  0  0
   14.1937    1.4963    2.3507 H   0  0  0  0  0  0  0  0  0  0  0  0
   13.3177    2.9414    2.7948 H   0  0  0  0  0  0  0  0  0  0  0  0
   12.4642    1.5767    2.1148 H   0  0  0  0  0  0  0  0  0  0  0  0
    8.3849    2.5699    1.7016 H   0  0  0  0  0  0  0  0  0  0  0  0
    7.7234    2.8937    3.3099 H   0  0  0  0  0  0  0  0  0  0  0  0
   10.6637    0.2466    5.9767 H   0  0  0  0  0  0  0  0  0  0  0  0
   10.7934    1.7819    6.8009 H   0  0  0  0  0  0  0  0  0  0  0  0
   12.1885    0.7374    6.6748 H   0  0  0  0  0  0  0  0  0  0  0  0
    7.1064   -2.9095    2.2569 H   0  0  0  0  0  0  0  0  0  0  0  0
    7.4812   -1.8011    0.9454 H   0  0  0  0  0  0  0  0  0  0  0  0
   15.8536   -1.7126    2.2478 H   0  0  0  0  0  0  0  0  0  0  0  0
   15.3251   -3.3780    2.2669 H   0  0  0  0  0  0  0  0  0  0  0  0
   16.3069   -2.7579    3.5726 H   0  0  0  0  0  0  0  0  0  0  0  0
   15.6267    2.6900    3.8583 H   0  0  0  0  0  0  0  0  0  0  0  0
   13.9089    4.0512    4.7219 H   0  0  0  0  0  0  0  0  0  0  0  0
   13.8301    3.7134    6.3992 H   0  0  0  0  0  0  0  0  0  0  0  0
    7.0391    0.4422    0.2502 H   0  0  0  0  0  0  0  0  0  0  0  0
    6.4294    1.9924    0.7779 H   0  0  0  0  0  0  0  0  0  0  0  0
    5.3378    0.6400    0.5964 H   0  0  0  0  0  0  0  0  0  0  0  0
    5.6175    2.3409    3.0235 H   0  0  0  0  0  0  0  0  0  0  0  0
    5.7088    1.0877    4.2377 H   0  0  0  0  0  0  0  0  0  0  0  0
    4.5491    0.9610    2.9370 H   0  0  0  0  0  0  0  0  0  0  0  0
   16.4785    2.0361    6.6941 H   0  0  0  0  0  0  0  0  0  0  0  0
   15.9858    3.6401    6.1101 H   0  0  0  0  0  0  0  0  0  0  0  0
   15.6750   -0.0730    4.7119 H   0  0  0  0  0  0  0  0  0  0  0  0
   17.2526    0.6763    4.7691 H   0  0  0  0  0  0  0  0  0  0  0  0
   16.3438    0.6661    3.2767 H   0  0  0  0  0  0  0  0  0  0  0  0
   18.2667    4.9665    4.6958 H   0  0  0  0  0  0  0  0  0  0  0  0
   17.1933    3.9551    3.7096 H   0  0  0  0  0  0  0  0  0  0  0  0
   20.1131    3.5011    4.0197 H   0  0  0  0  0  0  0  0  0  0  0  0
   19.8105    2.1023    1.9754 H   0  0  0  0  0  0  0  0  0  0  0  0
   18.0851    2.2878    2.1790 H   0  0  0  0  0  0  0  0  0  0  0  0
   19.0278    1.4789    3.4078 H   0  0  0  0  0  0  0  0  0  0  0  0
  1  2  2  0  0  0  0
  2  3  1  0  0  0  0
  2  4  1  0  0  0  0
  3  5  2  0  0  0  0
  3  6  1  0  0  0  0
  4  7  1  0  0  0  0
  4  8  1  0  0  0  0
  4 42  1  0  0  0  0
  5  9  1  0  0  0  0
  5 10  1  0  0  0  0
  6 11  1  0  0  0  0
  6 12  1  0  0  0  0
  6 13  1  0  0  0  0
  7 14  1  0  0  0  0
  8 15  1  0  0  0  0
  8 16  1  0  0  0  0
  8 10  1  0  0  0  0
  9 17  2  0  0  0  0
  9 18  1  0  0  0  0
 10 19  1  0  0  0  0
 10 20  1  0  0  0  0
 11 21  1  0  0  0  0
 11 18  1  0  0  0  0
 11 43  1  0  0  0  0
 12 22  1  0  0  0  0
 12 44  1  0  0  0  0
 12 45  1  0  0  0  0
 13 46  1  0  0  0  0
 13 47  1  0  0  0  0
 13 48  1  0  0  0  0
 14 23  2  0  0  0  0
 14 24  1  0  0  0  0
 15 25  1  0  0  0  0
 15 26  1  0  0  0  0
 15 49  1  0  0  0  0
 16 50  1  0  0  0  0
 16 51  1  0  0  0  0
 16 52  1  0  0  0  0
 18 53  1  0  0  0  0
 18 54  1  0  0  0  0
 19 27  2  0  0  0  0
 19 26  1  0  0  0  0
 20 55  1  0  0  0  0
 20 56  1  0  0  0  0
 20 57  1  0  0  0  0
 21 28  1  0  0  0  0
 21 29  1  0  0  0  0
 21 30  1  0  0  0  0
 22 28  1  0  0  0  0
 22 58  1  0  0  0  0
 22 59  1  0  0  0  0
 24 60  1  0  0  0  0
 24 61  1  0  0  0  0
 24 62  1  0  0  0  0
 25 31  1  0  0  0  0
 25 32  1  0  0  0  0
 25 63  1  0  0  0  0
 26 64  1  0  0  0  0
 26 65  1  0  0  0  0
 28 33  2  0  0  0  0
 29 66  1  0  0  0  0
 29 67  1  0  0  0  0
 29 68  1  0  0  0  0
 30 69  1  0  0  0  0
 30 70  1  0  0  0  0
 30 71  1  0  0  0  0
 31 34  1  0  0  0  0
 31 72  1  0  0  0  0
 31 73  1  0  0  0  0
 32 74  1  0  0  0  0
 32 75  1  0  0  0  0
 32 76  1  0  0  0  0
 34 35  2  0  0  0  0
 34 36  1  0  0  0  0
 36 37  1  0  0  0  0
 36 77  1  0  0  0  0
 36 78  1  0  0  0  0
 37 38  1  0  0  0  0
 37 39  1  0  0  0  0
 37 79  1  0  0  0  0
 38 40  2  0  0  0  0
 38 41  1  0  0  0  0
 39 80  1  0  0  0  0
 39 81  1  0  0  0  0
 39 82  1  0  0  0  0
M  CHG  1  41  -1
M  END
>  <Code-name>
188

>  <Compound>
Ganoderic acid  F

>  <Specie>
ganoderma lucidum

>  <Reference>
Paterson 2006

>  <Organism>
N/A

>  <Smiles>
C[C@H](CC(C[C@@H](C)C(O)=O)=O)[C@@H](CC1=O)[C@@](C)([C@@H]2OC(C)=O)[C@]1(C)C(C(C[C@@H](C1(C)C)[C@]3(C)CCC1=O)=O)=C3C2=O

>  <MMFF94 Energy>
85.475

>  <Total Molweight>
570.676

>  <Molweight>
570.676

>  <Monoisotopic Mass>
570.282885

>  <cLogP>
3.6074

>  <cLogS>
-4.862

>  <H-Acceptors>
9

>  <H-Donors>
1

>  <Total Surface Area>
407.8

>  <Relative PSA>
0.28048

>  <Polar Surface Area>
148.95

>  <Druglikeness>
-3.9083

>  <Mutagenic>
none

>  <Tumorigenic>
none

>  <Reproductive Effective>
none

>  <Irritant>
none

>  <Nasty Functions>


>  <Shape Index>
0.41463

>  <Molecular Flexibility>
0.3519

>  <Molecular Complexity>
1.0637

>  <Fragments>
1

>  <Non-H Atoms>
41

>  <Non-C/H Atoms>
9

>  <Metal-Atoms>
0

>  <Electronegative Atoms>
9

>  <Stereo Centers>
8

>  <Rotatable Bonds>
8

>  <Rings Closures>
4

>  <Small Rings>
4

>  <Aromatic Rings>
0

>  <Aromatic Atoms>
0

>  <sp3-Atoms>
25

>  <Symmetric atoms>
1

>  <Amides>
0

>  <Amines>
0

>  <Alkyl-Amines>
0

>  <Aromatic Amines>
0

>  <Aromatic Nitrogens>
0

>  <Basic Nitrogens>
0

>  <Acidic Oxygens>
1

>  <Stereo Configuration>
this enantiomer

> <Gold.Version>
5.8.1

> <Gold.Id.Protein>
ID_2|Prot_COX2_5IKQ_Alig|mol2

> <Gold.Goldscore.Fitness>
-33.8047

> <Gold.Goldscore.Internal.Vdw>
-21.9191

> <Gold.Goldscore.Internal.Torsion>
-11.2020

> <Gold.Goldscore.External.Vdw>
-22.6190

> <Gold.Goldscore.Internal.HBond>
0.0000

> <Gold.Goldscore.External.HBond>
3.3489

> <Gold.Goldscore.Internal.Correction>
-27.0686

> <Gold.Goldscore.Hbonds>
donor molecule, donor type, donor heavy atom, donor atom, acceptor molecule, acceptor atom, score
      P1  H  5068  5077       L1    33  0.10
      P1  H  5703  5712       L1    33  0.82
      P1  H  1361  1366       L1    41  0.25

> <Gold.Goldscore.Internal.Vdw.Weighted>
-21.9191

> <Gold.Goldscore.Internal.Torsion.Weighted>
-11.2020

> <Gold.Goldscore.External.Vdw.Weighted>
-31.1012

> <Gold.Goldscore.Internal.HBond.Weighted>
0.0000

> <Gold.Goldscore.External.HBond.Weighted>
3.3489

> <Gold.Goldscore.Internal.Correction.Weighted>
-27.0686

> <Gold.Protein.RotatedTorsions>
[ 5077 5068 5067 5065 ] final -146.85 input  179.94 | X-H torsion
[ 5157 5152 5151 5148 ] final  179.01 input -179.92 | X-H torsion
[ 5185 5176 5175 5173 ] final    2.40 input -179.99 | X-H torsion
[ 5712 5703 5702 5700 ] final   96.71 input  180.00 | X-H torsion
[ 8036 8031 8030 8027 ] final   53.09 input -179.94 | X-H torsion
[ 2749 2745 2743 2740 ] final -145.00 input  -60.05 | X-H torsion
[ 1366 1361 1360 1357 ] final  175.17 input  -60.09 | X-H torsion
[ 2556 2551 2550 2547 ] final  -31.76 input   59.97 | X-H torsion

> <Gold.Protein.ActiveResidues>
 PRO86   VAL89   HIS90   LEU93   THR94   ILE112  MET113  TYR115  VAL116  LEU117 
 THR118  SER119  ARG120  SER121  LEU123  ILE124  GLN192  SER194  PHE198  PHE201 
 ALA202  GLN203  PHE205  THR206  PHE209  PHE210  VAL228  ILE341  ILE343  VAL344 
 ILE345  GLU346  ASP347  TYR348  VAL349  GLN350  HIS351  LEU352  SER353  GLY354 
 TYR355  PHE357  LEU359  LYS360  GLU380  PHE381  ASN382  THR383  LEU384  TYR385 
 HIS386  TRP387  LEU390  VAL434  LEU507  ARG513  ALA516  ILE517  PHE518  GLY519 
 GLU520  THR521  MET522  VAL523  GLU524  VAL525  GLY526  ALA527  PRO528  PHE529 
 SER530  LEU531  LYS532  GLY533  LEU534  MET535  COH609 

> <Gold.Protein.RotatedAtoms>
   18.8242    6.7210    2.8583 H   0  0  0  0  0  0  0  0  0  0  0  0  # atno 1366 bound_to 1361
    4.9121   -9.3560    8.1498 H   0  0  0  0  0  0  0  0  0  0  0  0  # atno 2556 bound_to 2551
   -2.8198   -0.5212    0.6788 H   0  0  0  0  0  0  0  0  0  0  0  0  # atno 2749 bound_to 2745
    2.1546   -1.9601    3.7602 H   0  0  0  0  0  0  0  0  0  0  0  0  # atno 5077 bound_to 5068
   12.4109   -1.3738    9.2168 H   0  0  0  0  0  0  0  0  0  0  0  0  # atno 5157 bound_to 5152
   16.0199   -1.0960    4.6928 H   0  0  0  0  0  0  0  0  0  0  0  0  # atno 5185 bound_to 5176
    2.9639   -0.7129    2.4580 H   0  0  0  0  0  0  0  0  0  0  0  0  # atno 5712 bound_to 5703
    4.7979    4.6944    3.2051 H   0  0  0  0  0  0  0  0  0  0  0  0  # atno 8036 bound_to 8031
    0.7654   -1.3957    3.8740 LP  0  0  0  0  0  0  0  0  0  0  0  0  # atno 8267 bound_to 5068
    1.1389   -2.9258    4.3053 LP  0  0  0  0  0  0  0  0  0  0  0  0  # atno 8268 bound_to 5068
   12.7621   -2.8372    9.2137 LP  0  0  0  0  0  0  0  0  0  0  0  0  # atno 8279 bound_to 5152
   11.2280   -2.2946    9.3505 LP  0  0  0  0  0  0  0  0  0  0  0  0  # atno 8280 bound_to 5152
   16.4934    0.2701    5.1031 LP  0  0  0  0  0  0  0  0  0  0  0  0  # atno 8281 bound_to 5176
   14.9262   -0.0704    4.7955 LP  0  0  0  0  0  0  0  0  0  0  0  0  # atno 8282 bound_to 5176
    1.5386   -0.7783    2.9301 LP  0  0  0  0  0  0  0  0  0  0  0  0  # atno 8283 bound_to 5703
    2.2756    0.6214    2.5247 LP  0  0  0  0  0  0  0  0  0  0  0  0  # atno 8284 bound_to 5703
    6.1441    5.1280    3.7145 LP  0  0  0  0  0  0  0  0  0  0  0  0  # atno 8309 bound_to 8031
    5.7112    3.5595    3.5763 LP  0  0  0  0  0  0  0  0  0  0  0  0  # atno 8310 bound_to 8031
   -3.7855    0.1149   -0.2836 LP  0  0  0  0  0  0  0  0  0  0  0  0  # atno 8323 bound_to 2745
   -4.0484    0.0564    1.3270 LP  0  0  0  0  0  0  0  0  0  0  0  0  # atno 8324 bound_to 2745
   17.8235    7.0904    1.7970 LP  0  0  0  0  0  0  0  0  0  0  0  0  # atno 8335 bound_to 1361
   17.8560    7.7972    3.2688 LP  0  0  0  0  0  0  0  0  0  0  0  0  # atno 8336 bound_to 1361
    4.4731   -8.7928    6.8254 LP  0  0  0  0  0  0  0  0  0  0  0  0  # atno 8342 bound_to 2551
    5.1810  -10.2567    6.9748 LP  0  0  0  0  0  0  0  0  0  0  0  0  # atno 8343 bound_to 2551

