
189|LMW3_p|sdf|189|dock1
  -GOLD-   61022 2313D 1   1.00000     0.00000

 84 87  0  0  0  0  0  0  0  0  2 V2000
   11.6782   -1.8330    3.2163 O   0  0  0  0  0  0  0  0  0  0  0  0
   11.7989   -0.6633    3.5803 C   0  0  0  0  0  0  0  0  0  0  0  0
   10.6396    0.3085    3.4009 C   0  0  0  0  0  0  0  0  0  0  0  0
   13.1682   -0.1693    4.1583 C   0  0  1  0  0  0  0  0  0  0  0  0
   10.7898    1.5216    3.9823 C   0  0  0  0  0  0  0  0  0  0  0  0
    9.4231   -0.0591    2.5098 C   0  0  2  0  0  0  0  0  0  0  0  0
   14.1626   -0.6964    3.2658 O   0  0  0  0  0  0  0  0  0  0  0  0
   13.2514    1.3757    4.2735 C   0  0  1  0  0  0  0  0  0  0  0  0
    9.9674    2.6331    3.4378 C   0  0  0  0  0  0  0  0  0  0  0  0
   11.8984    1.7966    4.9550 C   0  0  1  0  0  0  0  0  0  0  0  0
    8.2250    0.8583    2.9826 C   0  0  1  0  0  0  0  0  0  0  0  0
    8.9759   -1.5389    2.6767 C   0  0  0  0  0  0  0  0  0  0  0  0
    9.8728    0.1731    1.0518 C   0  0  0  0  0  0  0  0  0  0  0  0
   14.6998   -1.8988    3.6227 C   0  0  0  0  0  0  0  0  0  0  0  0
   14.3231    1.9909    5.2556 C   0  0  1  0  0  0  0  0  0  0  0  0
   13.4454    2.0041    2.8588 C   0  0  0  0  0  0  0  0  0  0  0  0
   10.4529    3.7574    3.3404 O   0  0  0  0  0  0  0  0  0  0  0  0
    8.5984    2.3426    2.8773 C   0  0  0  0  0  0  0  0  0  0  0  0
   12.2340    3.1890    5.4785 C   0  0  0  0  0  0  0  0  0  0  0  0
   11.5344    1.0517    6.2806 C   0  0  0  0  0  0  0  0  0  0  0  0
    6.7906    0.5298    2.4185 C   0  0  0  0  0  0  0  0  0  0  0  0
    7.6175   -1.8696    2.0675 C   0  0  0  0  0  0  0  0  0  0  0  0
   14.2734   -2.6320    4.5032 O   0  0  0  0  0  0  0  0  0  0  0  0
   15.9280   -2.1737    2.8107 C   0  0  0  0  0  0  0  0  0  0  0  0
   15.8162    2.1540    4.8224 C   0  0  1  0  0  0  0  0  0  0  0  0
   13.7229    3.3897    5.5819 C   0  0  0  0  0  0  0  0  0  0  0  0
   11.4227    3.9964    5.9137 O   0  0  0  0  0  0  0  0  0  0  0  0
    6.5144   -0.9842    2.6272 C   0  0  2  0  0  0  0  0  0  0  0  0
    5.7227    1.3112    3.2333 C   0  0  0  0  0  0  0  0  0  0  0  0
    6.5793    0.9429    0.9460 C   0  0  0  0  0  0  0  0  0  0  0  0
   16.4931    3.3220    5.5875 C   0  0  0  0  0  0  0  0  0  0  0  0
   16.6449    0.8871    5.0459 C   0  0  0  0  0  0  0  0  0  0  0  0
    5.2659   -1.3751    2.0622 O   0  0  0  0  0  0  0  0  0  0  0  0
   17.7982    3.7933    4.9552 C   0  0  0  0  0  0  0  0  0  0  0  0
   18.8926    3.3584    5.3119 O   0  0  0  0  0  0  0  0  0  0  0  0
   17.6641    4.7664    3.7953 C   0  0  0  0  0  0  0  0  0  0  0  0
   18.5912    4.4082    2.6283 C   0  0  2  0  0  0  0  0  0  0  0  0
   18.6014    2.9288    2.3029 C   0  0  0  0  0  0  0  0  0  0  0  0
   20.0209    4.8484    2.9319 C   0  0  0  0  0  0  0  0  0  0  0  0
   19.0719    2.0505    3.0088 O   0  0  0  0  0  0  0  0  0  0  0  0
   17.9698    2.5998    1.1604 O   0  5  0  0  0  0  0  0  0  0  0  0
   13.3088   -0.5128    5.1619 H   0  0  0  0  0  0  0  0  0  0  0  0
    8.0958    0.6041    4.0139 H   0  0  0  0  0  0  0  0  0  0  0  0
    8.9334   -1.7577    3.7232 H   0  0  0  0  0  0  0  0  0  0  0  0
    9.6944   -2.1317    2.1500 H   0  0  0  0  0  0  0  0  0  0  0  0
   10.9227   -0.0151    0.9681 H   0  0  0  0  0  0  0  0  0  0  0  0
    9.6685    1.1856    0.7725 H   0  0  0  0  0  0  0  0  0  0  0  0
    9.3387   -0.4902    0.4039 H   0  0  0  0  0  0  0  0  0  0  0  0
   14.4490    1.2850    6.0498 H   0  0  0  0  0  0  0  0  0  0  0  0
   14.1826    1.4470    2.3191 H   0  0  0  0  0  0  0  0  0  0  0  0
   13.7691    3.0188    2.9606 H   0  0  0  0  0  0  0  0  0  0  0  0
   12.5177    1.9773    2.3263 H   0  0  0  0  0  0  0  0  0  0  0  0
    8.5815    2.6286    1.8464 H   0  0  0  0  0  0  0  0  0  0  0  0
    7.8868    2.8989    3.4510 H   0  0  0  0  0  0  0  0  0  0  0  0
   10.9429    1.6935    6.8996 H   0  0  0  0  0  0  0  0  0  0  0  0
   12.4323    0.7854    6.7980 H   0  0  0  0  0  0  0  0  0  0  0  0
   10.9790    0.1664    6.0513 H   0  0  0  0  0  0  0  0  0  0  0  0
    7.3824   -2.8915    2.2804 H   0  0  0  0  0  0  0  0  0  0  0  0
    7.6766   -1.6992    1.0128 H   0  0  0  0  0  0  0  0  0  0  0  0
   16.7694   -1.6903    3.2618 H   0  0  0  0  0  0  0  0  0  0  0  0
   15.7909   -1.7981    1.8182 H   0  0  0  0  0  0  0  0  0  0  0  0
   16.1012   -3.2288    2.7721 H   0  0  0  0  0  0  0  0  0  0  0  0
   15.7903    2.3596    3.7727 H   0  0  0  0  0  0  0  0  0  0  0  0
   14.0570    4.1199    4.8747 H   0  0  0  0  0  0  0  0  0  0  0  0
   14.0212    3.7480    6.5451 H   0  0  0  0  0  0  0  0  0  0  0  0
    6.4827   -1.1239    3.6875 H   0  0  0  0  0  0  0  0  0  0  0  0
    5.9117    1.1879    4.2793 H   0  0  0  0  0  0  0  0  0  0  0  0
    4.7492    0.9337    2.9998 H   0  0  0  0  0  0  0  0  0  0  0  0
    5.7722    2.3501    2.9821 H   0  0  0  0  0  0  0  0  0  0  0  0
    7.3188    0.4709    0.3335 H   0  0  0  0  0  0  0  0  0  0  0  0
    6.6680    2.0055    0.8574 H   0  0  0  0  0  0  0  0  0  0  0  0
    5.6045    0.6385    0.6265 H   0  0  0  0  0  0  0  0  0  0  0  0
   16.6992    2.9973    6.5861 H   0  0  0  0  0  0  0  0  0  0  0  0
   15.8149    4.1492    5.5594 H   0  0  0  0  0  0  0  0  0  0  0  0
   16.8027    0.7445    6.0945 H   0  0  0  0  0  0  0  0  0  0  0  0
   17.5895    0.9873    4.5535 H   0  0  0  0  0  0  0  0  0  0  0  0
   16.1218    0.0436    4.6459 H   0  0  0  0  0  0  0  0  0  0  0  0
    5.3691   -1.5017    1.1061 H   0  0  0  0  0  0  0  0  0  0  0  0
   17.9085    5.7493    4.1402 H   0  0  0  0  0  0  0  0  0  0  0  0
   16.6559    4.7174    3.4405 H   0  0  0  0  0  0  0  0  0  0  0  0
   18.2044    4.9275    1.7764 H   0  0  0  0  0  0  0  0  0  0  0  0
   20.5207    5.0923    2.0177 H   0  0  0  0  0  0  0  0  0  0  0  0
   20.5424    4.0532    3.4224 H   0  0  0  0  0  0  0  0  0  0  0  0
   20.0017    5.7083    3.5683 H   0  0  0  0  0  0  0  0  0  0  0  0
  1  2  2  0  0  0  0
  2  3  1  0  0  0  0
  2  4  1  0  0  0  0
  3  5  2  0  0  0  0
  3  6  1  0  0  0  0
  4  7  1  0  0  0  0
  4  8  1  0  0  0  0
  4 42  1  0  0  0  0
  5  9  1  0  0  0  0
  5 10  1  0  0  0  0
  6 11  1  0  0  0  0
  6 12  1  0  0  0  0
  6 13  1  0  0  0  0
  7 14  1  0  0  0  0
  8 15  1  0  0  0  0
  8 16  1  0  0  0  0
  8 10  1  0  0  0  0
  9 17  2  0  0  0  0
  9 18  1  0  0  0  0
 10 19  1  0  0  0  0
 10 20  1  0  0  0  0
 11 21  1  0  0  0  0
 11 18  1  0  0  0  0
 11 43  1  0  0  0  0
 12 22  1  0  0  0  0
 12 44  1  0  0  0  0
 12 45  1  0  0  0  0
 13 46  1  0  0  0  0
 13 47  1  0  0  0  0
 13 48  1  0  0  0  0
 14 23  2  0  0  0  0
 14 24  1  0  0  0  0
 15 25  1  0  0  0  0
 15 26  1  0  0  0  0
 15 49  1  0  0  0  0
 16 50  1  0  0  0  0
 16 51  1  0  0  0  0
 16 52  1  0  0  0  0
 18 53  1  0  0  0  0
 18 54  1  0  0  0  0
 19 27  2  0  0  0  0
 19 26  1  0  0  0  0
 20 55  1  0  0  0  0
 20 56  1  0  0  0  0
 20 57  1  0  0  0  0
 21 28  1  0  0  0  0
 21 29  1  0  0  0  0
 21 30  1  0  0  0  0
 22 28  1  0  0  0  0
 22 58  1  0  0  0  0
 22 59  1  0  0  0  0
 24 60  1  0  0  0  0
 24 61  1  0  0  0  0
 24 62  1  0  0  0  0
 25 31  1  0  0  0  0
 25 32  1  0  0  0  0
 25 63  1  0  0  0  0
 26 64  1  0  0  0  0
 26 65  1  0  0  0  0
 28 33  1  0  0  0  0
 28 66  1  0  0  0  0
 29 67  1  0  0  0  0
 29 68  1  0  0  0  0
 29 69  1  0  0  0  0
 30 70  1  0  0  0  0
 30 71  1  0  0  0  0
 30 72  1  0  0  0  0
 31 34  1  0  0  0  0
 31 73  1  0  0  0  0
 31 74  1  0  0  0  0
 32 75  1  0  0  0  0
 32 76  1  0  0  0  0
 32 77  1  0  0  0  0
 33 78  1  0  0  0  0
 34 35  2  0  0  0  0
 34 36  1  0  0  0  0
 36 37  1  0  0  0  0
 36 79  1  0  0  0  0
 36 80  1  0  0  0  0
 37 38  1  0  0  0  0
 37 39  1  0  0  0  0
 37 81  1  0  0  0  0
 38 40  2  0  0  0  0
 38 41  1  0  0  0  0
 39 82  1  0  0  0  0
 39 83  1  0  0  0  0
 39 84  1  0  0  0  0
M  CHG  1  41  -1
M  END
>  <Code-name>
189

>  <Compound>
Ganoderic Acid H

>  <Specie>
ganoderma lucidum

>  <Reference>
Paterson 2006

>  <Organism>
N/A

>  <Smiles>
C[C@H](CC(C[C@@H](C)C(O)=O)=O)[C@@H](CC1=O)[C@@](C)([C@@H]2OC(C)=O)[C@]1(C)C(C(C[C@@H](C1(C)C)[C@]3(C)CC[C@@H]1O)=O)=C3C2=O

>  <MMFF94 Energy>
89.024

>  <Total Molweight>
572.692

>  <Molweight>
572.692

>  <Monoisotopic Mass>
572.298535

>  <cLogP>
3.4637

>  <cLogS>
-4.811

>  <H-Acceptors>
9

>  <H-Donors>
2

>  <Total Surface Area>
408.9

>  <Relative PSA>
0.27987

>  <Polar Surface Area>
152.11

>  <Druglikeness>
-1.6889

>  <Mutagenic>
none

>  <Tumorigenic>
none

>  <Reproductive Effective>
none

>  <Irritant>
none

>  <Nasty Functions>


>  <Shape Index>
0.41463

>  <Molecular Flexibility>
0.35005

>  <Molecular Complexity>
1.0652

>  <Fragments>
1

>  <Non-H Atoms>
41

>  <Non-C/H Atoms>
9

>  <Metal-Atoms>
0

>  <Electronegative Atoms>
9

>  <Stereo Centers>
9

>  <Rotatable Bonds>
8

>  <Rings Closures>
4

>  <Small Rings>
4

>  <Aromatic Rings>
0

>  <Aromatic Atoms>
0

>  <sp3-Atoms>
27

>  <Symmetric atoms>
1

>  <Amides>
0

>  <Amines>
0

>  <Alkyl-Amines>
0

>  <Aromatic Amines>
0

>  <Aromatic Nitrogens>
0

>  <Basic Nitrogens>
0

>  <Acidic Oxygens>
1

>  <Stereo Configuration>
this enantiomer

> <Gold.Version>
5.8.1

> <Gold.Id.Protein>
ID_2|Prot_COX2_5IKQ_Alig|mol2

> <Gold.Goldscore.Fitness>
0.0000

> <Gold.Goldscore.Internal.Vdw>
-28.2834

> <Gold.Goldscore.Internal.Torsion>
-12.8591

> <Gold.Goldscore.External.Vdw>
-704.8667

> <Gold.Goldscore.Internal.HBond>
0.0000

> <Gold.Goldscore.External.HBond>
0.9184

> <Gold.Goldscore.Internal.Correction>
-32.6600

> <Gold.Goldscore.Hbonds>
donor molecule, donor type, donor heavy atom, donor atom, acceptor molecule, acceptor atom, score
      P1  H  5068  5077       L1    33  0.06
      P1  H  5703  5712       L1    33  0.11

> <Gold.Goldscore.Internal.Vdw.Weighted>
-28.2834

> <Gold.Goldscore.Internal.Torsion.Weighted>
-12.8591

> <Gold.Goldscore.External.Vdw.Weighted>
-969.1917

> <Gold.Goldscore.Internal.HBond.Weighted>
0.0000

> <Gold.Goldscore.External.HBond.Weighted>
0.9184

> <Gold.Goldscore.Internal.Correction.Weighted>
-32.6600

> <Gold.Protein.RotatedTorsions>
[ 5077 5068 5067 5065 ] final -146.31 input  179.94 | X-H torsion
[ 5157 5152 5151 5148 ] final   29.61 input -179.92 | X-H torsion
[ 5185 5176 5175 5173 ] final  142.04 input -179.99 | X-H torsion
[ 5712 5703 5702 5700 ] final  130.78 input  180.00 | X-H torsion
[ 8036 8031 8030 8027 ] final -175.72 input -179.94 | X-H torsion
[ 2749 2745 2743 2740 ] final  138.23 input  -60.05 | X-H torsion
[ 1366 1361 1360 1357 ] final -106.50 input  -60.09 | X-H torsion
[ 2556 2551 2550 2547 ] final   69.81 input   59.97 | X-H torsion

> <Gold.Protein.ActiveResidues>
 PRO86   VAL89   HIS90   LEU93   THR94   ILE112  MET113  TYR115  VAL116  LEU117 
 THR118  SER119  ARG120  SER121  LEU123  ILE124  GLN192  SER194  PHE198  PHE201 
 ALA202  GLN203  PHE205  THR206  PHE209  PHE210  VAL228  ILE341  ILE343  VAL344 
 ILE345  GLU346  ASP347  TYR348  VAL349  GLN350  HIS351  LEU352  SER353  GLY354 
 TYR355  PHE357  LEU359  LYS360  GLU380  PHE381  ASN382  THR383  LEU384  TYR385 
 HIS386  TRP387  LEU390  VAL434  LEU507  ARG513  ALA516  ILE517  PHE518  GLY519 
 GLU520  THR521  MET522  VAL523  GLU524  VAL525  GLY526  ALA527  PRO528  PHE529 
 SER530  LEU531  LYS532  GLY533  LEU534  MET535  COH609 

> <Gold.Protein.RotatedAtoms>
   18.3628    7.4320    3.3858 H   0  0  0  0  0  0  0  0  0  0  0  0  # atno 1366 bound_to 1361
    5.1539  -10.1909    7.2870 H   0  0  0  0  0  0  0  0  0  0  0  0  # atno 2556 bound_to 2551
   -3.2147   -0.1831   -0.1530 H   0  0  0  0  0  0  0  0  0  0  0  0  # atno 2749 bound_to 2745
    2.1563   -1.9671    3.7622 H   0  0  0  0  0  0  0  0  0  0  0  0  # atno 5077 bound_to 5068
   12.3004   -2.8950    9.2078 H   0  0  0  0  0  0  0  0  0  0  0  0  # atno 5157 bound_to 5152
   15.1826    0.1010    4.9249 H   0  0  0  0  0  0  0  0  0  0  0  0  # atno 5185 bound_to 5176
    3.0485   -0.2670    2.3727 H   0  0  0  0  0  0  0  0  0  0  0  0  # atno 5712 bound_to 5703
    5.8266    3.7606    3.5683 H   0  0  0  0  0  0  0  0  0  0  0  0  # atno 8036 bound_to 8031
    0.7717   -1.3904    3.8705 LP  0  0  0  0  0  0  0  0  0  0  0  0  # atno 8267 bound_to 5068
    1.1306   -2.9227    4.3064 LP  0  0  0  0  0  0  0  0  0  0  0  0  # atno 8268 bound_to 5068
   11.2628   -1.8146    9.3533 LP  0  0  0  0  0  0  0  0  0  0  0  0  # atno 8279 bound_to 5152
   12.8594   -1.4978    9.2215 LP  0  0  0  0  0  0  0  0  0  0  0  0  # atno 8280 bound_to 5152
   15.7477   -1.2450    4.5678 LP  0  0  0  0  0  0  0  0  0  0  0  0  # atno 8281 bound_to 5176
   16.6772    0.0073    5.0521 LP  0  0  0  0  0  0  0  0  0  0  0  0  # atno 8282 bound_to 5176
    1.9390   -1.1538    2.8641 LP  0  0  0  0  0  0  0  0  0  0  0  0  # atno 8283 bound_to 5703
    1.7737    0.4618    2.6930 LP  0  0  0  0  0  0  0  0  0  0  0  0  # atno 8284 bound_to 5703
    4.6107    4.5585    3.1877 LP  0  0  0  0  0  0  0  0  0  0  0  0  # atno 8309 bound_to 8031
    6.0105    5.2493    3.6673 LP  0  0  0  0  0  0  0  0  0  0  0  0  # atno 8310 bound_to 8031
   -4.3273    0.2952    0.7397 LP  0  0  0  0  0  0  0  0  0  0  0  0  # atno 8323 bound_to 2745
   -3.0336   -0.5288    1.3000 LP  0  0  0  0  0  0  0  0  0  0  0  0  # atno 8324 bound_to 2745
   18.7170    6.4702    2.2842 LP  0  0  0  0  0  0  0  0  0  0  0  0  # atno 8335 bound_to 1361
   17.5144    7.5668    2.1505 LP  0  0  0  0  0  0  0  0  0  0  0  0  # atno 8336 bound_to 1361
    4.8326   -9.0535    8.2183 LP  0  0  0  0  0  0  0  0  0  0  0  0  # atno 8342 bound_to 2551
    4.5322   -8.9972    6.6141 LP  0  0  0  0  0  0  0  0  0  0  0  0  # atno 8343 bound_to 2551

