
190|LMW3_p|sdf|190|dock8
  -GOLD-   61022 2403D 1   1.00000     0.00000

 92 95  0  0  0  0  0  0  0  0  2 V2000
   20.0027    3.7442    6.0128 O   0  0  0  0  0  0  0  0  0  0  0  0
   19.6068    3.6957    4.8618 C   0  0  0  0  0  0  0  0  0  0  0  0
   20.4750    3.6622    3.8371 O   0  5  0  0  0  0  0  0  0  0  0  0
   18.1928    3.6741    4.4051 C   0  0  0  0  0  0  0  0  0  0  0  0
   17.2664    3.3605    5.3336 C   0  0  0  0  0  0  0  0  0  0  0  0
   17.9224    3.9746    2.9620 C   0  0  0  0  0  0  0  0  0  0  0  0
   15.7752    3.2929    5.1468 C   0  0  0  0  0  0  0  0  0  0  0  0
   15.0729    2.9155    6.4572 C   0  0  0  0  0  0  0  0  0  0  0  0
   13.5254    2.8265    6.3400 C   0  0  2  0  0  0  0  0  0  0  0  0
   13.1278    1.9169    5.1343 C   0  0  2  0  0  0  0  0  0  0  0  0
   12.9309    4.2344    6.2240 C   0  0  0  0  0  0  0  0  0  0  0  0
   11.6354    1.5292    4.8970 C   0  0  2  0  0  0  0  0  0  0  0  0
   13.8256    0.5289    5.2052 C   0  0  0  0  0  0  0  0  0  0  0  0
   11.7678    0.3102    3.8882 C   0  0  1  0  0  0  0  0  0  0  0  0
   10.7604    2.5901    4.2183 C   0  0  0  0  0  0  0  0  0  0  0  0
   10.9862    1.1379    6.2622 C   0  0  0  0  0  0  0  0  0  0  0  0
   12.8556   -0.5227    4.6238 C   0  0  1  0  0  0  0  0  0  0  0  0
   10.3751   -0.3053    3.6468 C   0  0  0  0  0  0  0  0  0  0  0  0
   12.3029    0.7023    2.4733 C   0  0  0  0  0  0  0  0  0  0  0  0
    9.3952    2.0191    3.7914 C   0  0  0  0  0  0  0  0  0  0  0  0
   13.5876   -1.3909    3.7480 O   0  0  0  0  0  0  0  0  0  0  0  0
    9.2865    0.5095    3.5730 C   0  0  0  0  0  0  0  0  0  0  0  0
   10.2758   -1.8134    3.5457 C   0  0  2  0  0  0  0  0  0  0  0  0
   14.2639   -2.4092    4.3380 C   0  0  0  0  0  0  0  0  0  0  0  0
    7.8645   -0.0614    3.4021 C   0  0  2  0  0  0  0  0  0  0  0  0
   11.2018   -2.2884    2.5768 O   0  0  0  0  0  0  0  0  0  0  0  0
    8.8931   -2.3930    3.2149 C   0  0  0  0  0  0  0  0  0  0  0  0
   13.9934   -2.9192    5.4158 O   0  0  0  0  0  0  0  0  0  0  0  0
   15.4064   -2.8317    3.4663 C   0  0  0  0  0  0  0  0  0  0  0  0
    7.8828   -1.4067    2.5893 C   0  0  2  0  0  0  0  0  0  0  0  0
    6.8346    0.9088    2.7588 C   0  0  0  0  0  0  0  0  0  0  0  0
    7.3388   -0.3271    4.8442 C   0  0  0  0  0  0  0  0  0  0  0  0
    7.9536   -1.2610    1.0098 C   0  0  0  0  0  0  0  0  0  0  0  0
    6.9942    1.0938    1.2608 C   0  0  0  0  0  0  0  0  0  0  0  0
    6.8574   -0.2488    0.5482 C   0  0  1  0  0  0  0  0  0  0  0  0
    7.6250   -2.6259    0.3464 C   0  0  0  0  0  0  0  0  0  0  0  0
    9.3283   -0.8332    0.4576 C   0  0  0  0  0  0  0  0  0  0  0  0
    6.9484   -0.0329   -0.8759 O   0  0  0  0  0  0  0  0  0  0  0  0
    6.3426   -0.9552   -1.6715 C   0  0  0  0  0  0  0  0  0  0  0  0
    5.3530   -1.6113   -1.3807 O   0  0  0  0  0  0  0  0  0  0  0  0
    7.0700   -1.0553   -2.9772 C   0  0  0  0  0  0  0  0  0  0  0  0
   17.6201    3.1423    6.2782 H   0  0  0  0  0  0  0  0  0  0  0  0
   17.9157    3.0624    2.4029 H   0  0  0  0  0  0  0  0  0  0  0  0
   18.6871    4.6198    2.5826 H   0  0  0  0  0  0  0  0  0  0  0  0
   16.9714    4.4562    2.8701 H   0  0  0  0  0  0  0  0  0  0  0  0
   15.5487    2.5568    4.4040 H   0  0  0  0  0  0  0  0  0  0  0  0
   15.4265    4.2565    4.8388 H   0  0  0  0  0  0  0  0  0  0  0  0
   15.3129    3.6544    7.1929 H   0  0  0  0  0  0  0  0  0  0  0  0
   15.4205    1.9398    6.7258 H   0  0  0  0  0  0  0  0  0  0  0  0
   13.1218    2.3766    7.2229 H   0  0  0  0  0  0  0  0  0  0  0  0
   13.4273    2.5773    4.3475 H   0  0  0  0  0  0  0  0  0  0  0  0
   13.3707    4.8694    6.9644 H   0  0  0  0  0  0  0  0  0  0  0  0
   11.8728    4.1884    6.3765 H   0  0  0  0  0  0  0  0  0  0  0  0
   13.1341    4.6282    5.2501 H   0  0  0  0  0  0  0  0  0  0  0  0
   14.0541    0.2889    6.2226 H   0  0  0  0  0  0  0  0  0  0  0  0
   14.7380    0.5423    4.6464 H   0  0  0  0  0  0  0  0  0  0  0  0
   11.2694    2.9556    3.3509 H   0  0  0  0  0  0  0  0  0  0  0  0
   10.5859    3.3768    4.9223 H   0  0  0  0  0  0  0  0  0  0  0  0
   10.7300    2.0251    6.8027 H   0  0  0  0  0  0  0  0  0  0  0  0
   11.6810    0.5595    6.8348 H   0  0  0  0  0  0  0  0  0  0  0  0
   10.1028    0.5609    6.0846 H   0  0  0  0  0  0  0  0  0  0  0  0
   12.4007   -1.1559    5.3566 H   0  0  0  0  0  0  0  0  0  0  0  0
   13.0987    1.4100    2.5765 H   0  0  0  0  0  0  0  0  0  0  0  0
   11.5108    1.1374    1.9004 H   0  0  0  0  0  0  0  0  0  0  0  0
   12.6655   -0.1719    1.9742 H   0  0  0  0  0  0  0  0  0  0  0  0
    9.1249    2.4942    2.8716 H   0  0  0  0  0  0  0  0  0  0  0  0
    8.7506    2.2165    4.6224 H   0  0  0  0  0  0  0  0  0  0  0  0
   10.4952   -2.1524    4.5366 H   0  0  0  0  0  0  0  0  0  0  0  0
   11.4172   -3.2157    2.7629 H   0  0  0  0  0  0  0  0  0  0  0  0
    8.4680   -2.7665    4.1229 H   0  0  0  0  0  0  0  0  0  0  0  0
    9.0632   -3.1445    2.4724 H   0  0  0  0  0  0  0  0  0  0  0  0
   15.5431   -2.1138    2.6848 H   0  0  0  0  0  0  0  0  0  0  0  0
   15.1935   -3.7888    3.0382 H   0  0  0  0  0  0  0  0  0  0  0  0
   16.2988   -2.8941    4.0534 H   0  0  0  0  0  0  0  0  0  0  0  0
    6.9114   -1.8435    2.6920 H   0  0  0  0  0  0  0  0  0  0  0  0
    6.9392    1.8654    3.2267 H   0  0  0  0  0  0  0  0  0  0  0  0
    5.8696    0.4721    2.9103 H   0  0  0  0  0  0  0  0  0  0  0  0
    7.1350    0.6057    5.3270 H   0  0  0  0  0  0  0  0  0  0  0  0
    8.0794   -0.8625    5.4008 H   0  0  0  0  0  0  0  0  0  0  0  0
    6.4410   -0.9071    4.7954 H   0  0  0  0  0  0  0  0  0  0  0  0
    7.9601    1.5061    1.0562 H   0  0  0  0  0  0  0  0  0  0  0  0
    6.2325    1.7569    0.9070 H   0  0  0  0  0  0  0  0  0  0  0  0
    5.9072   -0.6727    0.7977 H   0  0  0  0  0  0  0  0  0  0  0  0
    7.6293   -2.5153   -0.7179 H   0  0  0  0  0  0  0  0  0  0  0  0
    6.6586   -2.9549    0.6670 H   0  0  0  0  0  0  0  0  0  0  0  0
    8.3608   -3.3480    0.6329 H   0  0  0  0  0  0  0  0  0  0  0  0
    9.2349   -0.5853   -0.5791 H   0  0  0  0  0  0  0  0  0  0  0  0
   10.0242   -1.6381    0.5705 H   0  0  0  0  0  0  0  0  0  0  0  0
    9.6799    0.0208    0.9982 H   0  0  0  0  0  0  0  0  0  0  0  0
    6.6271   -1.8249   -3.5741 H   0  0  0  0  0  0  0  0  0  0  0  0
    8.0977   -1.2916   -2.7957 H   0  0  0  0  0  0  0  0  0  0  0  0
    7.0048   -0.1208   -3.4942 H   0  0  0  0  0  0  0  0  0  0  0  0
  1  2  2  0  0  0  0
  2  3  1  0  0  0  0
  2  4  1  0  0  0  0
  4  5  2  0  0  0  0
  4  6  1  0  0  0  0
  5  7  1  0  0  0  0
  5 42  1  0  0  0  0
  6 43  1  0  0  0  0
  6 44  1  0  0  0  0
  6 45  1  0  0  0  0
  7  8  1  0  0  0  0
  7 46  1  0  0  0  0
  7 47  1  0  0  0  0
  8  9  1  0  0  0  0
  8 48  1  0  0  0  0
  8 49  1  0  0  0  0
  9 10  1  0  0  0  0
  9 11  1  0  0  0  0
  9 50  1  0  0  0  0
 10 12  1  0  0  0  0
 10 13  1  0  0  0  0
 10 51  1  0  0  0  0
 11 52  1  0  0  0  0
 11 53  1  0  0  0  0
 11 54  1  0  0  0  0
 12 14  1  0  0  0  0
 12 15  1  0  0  0  0
 12 16  1  0  0  0  0
 13 17  1  0  0  0  0
 13 55  1  0  0  0  0
 13 56  1  0  0  0  0
 14 18  1  0  0  0  0
 14 19  1  0  0  0  0
 14 17  1  0  0  0  0
 15 20  1  0  0  0  0
 15 57  1  0  0  0  0
 15 58  1  0  0  0  0
 16 59  1  0  0  0  0
 16 60  1  0  0  0  0
 16 61  1  0  0  0  0
 17 21  1  0  0  0  0
 17 62  1  0  0  0  0
 18 22  2  0  0  0  0
 18 23  1  0  0  0  0
 19 63  1  0  0  0  0
 19 64  1  0  0  0  0
 19 65  1  0  0  0  0
 20 22  1  0  0  0  0
 20 66  1  0  0  0  0
 20 67  1  0  0  0  0
 21 24  1  0  0  0  0
 22 25  1  0  0  0  0
 23 26  1  0  0  0  0
 23 27  1  0  0  0  0
 23 68  1  0  0  0  0
 24 28  2  0  0  0  0
 24 29  1  0  0  0  0
 25 30  1  0  0  0  0
 25 31  1  0  0  0  0
 25 32  1  0  0  0  0
 26 69  1  0  0  0  0
 27 30  1  0  0  0  0
 27 70  1  0  0  0  0
 27 71  1  0  0  0  0
 29 72  1  0  0  0  0
 29 73  1  0  0  0  0
 29 74  1  0  0  0  0
 30 33  1  0  0  0  0
 30 75  1  0  0  0  0
 31 34  1  0  0  0  0
 31 76  1  0  0  0  0
 31 77  1  0  0  0  0
 32 78  1  0  0  0  0
 32 79  1  0  0  0  0
 32 80  1  0  0  0  0
 33 35  1  0  0  0  0
 33 36  1  0  0  0  0
 33 37  1  0  0  0  0
 34 35  1  0  0  0  0
 34 81  1  0  0  0  0
 34 82  1  0  0  0  0
 35 38  1  0  0  0  0
 35 83  1  0  0  0  0
 36 84  1  0  0  0  0
 36 85  1  0  0  0  0
 36 86  1  0  0  0  0
 37 87  1  0  0  0  0
 37 88  1  0  0  0  0
 37 89  1  0  0  0  0
 38 39  1  0  0  0  0
 39 40  2  0  0  0  0
 39 41  1  0  0  0  0
 41 90  1  0  0  0  0
 41 91  1  0  0  0  0
 41 92  1  0  0  0  0
M  CHG  1   3  -1
M  END
>  <Code-name>
190

>  <Compound>
Ganoderic Acid W

>  <Specie>
ganoderma lucidum

>  <Reference>
Paterson 2007

>  <Organism>
Inhibitor dna-topoisomerase

>  <Smiles>
C[C@H](CC/C=C(\C)/C(O)=O)[C@@H](C[C@@H]1OC(C)=O)[C@@](C)(CC2)[C@]1(C)C([C@@H](C1)O)=C2[C@@](C)(CC2)[C@H]1C(C)(C)[C@@H]2OC(C)=O

>  <MMFF94 Energy>
86.093

>  <Total Molweight>
572.780

>  <Molweight>
572.780

>  <Monoisotopic Mass>
572.371305

>  <cLogP>
6.4103

>  <cLogS>
-5.95

>  <H-Acceptors>
7

>  <H-Donors>
2

>  <Total Surface Area>
430.14

>  <Relative PSA>
0.19835

>  <Polar Surface Area>
110.13

>  <Druglikeness>
-0.79457

>  <Mutagenic>
none

>  <Tumorigenic>
none

>  <Reproductive Effective>
high

>  <Irritant>
none

>  <Nasty Functions>


>  <Shape Index>
0.46341

>  <Molecular Flexibility>
0.31042

>  <Molecular Complexity>
1.0671

>  <Fragments>
1

>  <Non-H Atoms>
41

>  <Non-C/H Atoms>
7

>  <Metal-Atoms>
0

>  <Electronegative Atoms>
7

>  <Stereo Centers>
9

>  <Rotatable Bonds>
9

>  <Rings Closures>
4

>  <Small Rings>
4

>  <Aromatic Rings>
0

>  <Aromatic Atoms>
0

>  <sp3-Atoms>
31

>  <Symmetric atoms>
1

>  <Amides>
0

>  <Amines>
0

>  <Alkyl-Amines>
0

>  <Aromatic Amines>
0

>  <Aromatic Nitrogens>
0

>  <Basic Nitrogens>
0

>  <Acidic Oxygens>
1

>  <Stereo Configuration>
this enantiomer

> <Gold.Version>
5.8.1

> <Gold.Id.Protein>
ID_2|Prot_COX2_5IKQ_Alig|mol2

> <Gold.Goldscore.Fitness>
-89.6055

> <Gold.Goldscore.Internal.Vdw>
-28.1712

> <Gold.Goldscore.Internal.Torsion>
-14.4229

> <Gold.Goldscore.External.Vdw>
-57.1641

> <Gold.Goldscore.Internal.HBond>
0.0000

> <Gold.Goldscore.External.HBond>
0.1615

> <Gold.Goldscore.Internal.Correction>
-31.4277

> <Gold.Goldscore.Hbonds>
donor molecule, donor type, donor heavy atom, donor atom, acceptor molecule, acceptor atom, score
      P1  H  1361  1366       L1     3  0.03

> <Gold.Goldscore.Internal.Vdw.Weighted>
-28.1712

> <Gold.Goldscore.Internal.Torsion.Weighted>
-14.4229

> <Gold.Goldscore.External.Vdw.Weighted>
-78.6006

> <Gold.Goldscore.Internal.HBond.Weighted>
0.0000

> <Gold.Goldscore.External.HBond.Weighted>
0.1615

> <Gold.Goldscore.Internal.Correction.Weighted>
-31.4277

> <Gold.Protein.RotatedTorsions>
[ 5077 5068 5067 5065 ] final -173.41 input  179.94 | X-H torsion
[ 5157 5152 5151 5148 ] final -172.52 input -179.92 | X-H torsion
[ 5185 5176 5175 5173 ] final  -66.80 input -179.99 | X-H torsion
[ 5712 5703 5702 5700 ] final  112.39 input  180.00 | X-H torsion
[ 8036 8031 8030 8027 ] final -132.85 input -179.94 | X-H torsion
[ 2749 2745 2743 2740 ] final   11.85 input  -60.05 | X-H torsion
[ 1366 1361 1360 1357 ] final  174.47 input  -60.09 | X-H torsion
[ 2556 2551 2550 2547 ] final -130.37 input   59.97 | X-H torsion

> <Gold.Protein.ActiveResidues>
 PRO86   VAL89   HIS90   LEU93   THR94   ILE112  MET113  TYR115  VAL116  LEU117 
 THR118  SER119  ARG120  SER121  LEU123  ILE124  GLN192  SER194  PHE198  PHE201 
 ALA202  GLN203  PHE205  THR206  PHE209  PHE210  VAL228  ILE341  ILE343  VAL344 
 ILE345  GLU346  ASP347  TYR348  VAL349  GLN350  HIS351  LEU352  SER353  GLY354 
 TYR355  PHE357  LEU359  LYS360  GLU380  PHE381  ASN382  THR383  LEU384  TYR385 
 HIS386  TRP387  LEU390  VAL434  LEU507  ARG513  ALA516  ILE517  PHE518  GLY519 
 GLU520  THR521  MET522  VAL523  GLU524  VAL525  GLY526  ALA527  PRO528  PHE529 
 SER530  LEU531  LYS532  GLY533  LEU534  MET535  COH609 

> <Gold.Protein.RotatedAtoms>
   18.8239    6.7169    2.8496 H   0  0  0  0  0  0  0  0  0  0  0  0  # atno 1366 bound_to 1361
    4.4834   -8.7903    7.1841 H   0  0  0  0  0  0  0  0  0  0  0  0  # atno 2556 bound_to 2551
   -4.1611    0.2408    0.8024 H   0  0  0  0  0  0  0  0  0  0  0  0  # atno 2749 bound_to 2745
    1.9953   -1.6417    3.6915 H   0  0  0  0  0  0  0  0  0  0  0  0  # atno 5077 bound_to 5068
   12.2986   -1.3432    9.2267 H   0  0  0  0  0  0  0  0  0  0  0  0  # atno 5157 bound_to 5152
   16.5996   -0.4655    4.9517 H   0  0  0  0  0  0  0  0  0  0  0  0  # atno 5185 bound_to 5176
    3.0352   -0.5157    2.4104 H   0  0  0  0  0  0  0  0  0  0  0  0  # atno 5712 bound_to 5703
    6.2027    4.1785    3.6955 H   0  0  0  0  0  0  0  0  0  0  0  0  # atno 8036 bound_to 8031
    0.5359   -1.7208    4.0454 LP  0  0  0  0  0  0  0  0  0  0  0  0  # atno 8267 bound_to 5068
    1.5592   -2.9819    4.2162 LP  0  0  0  0  0  0  0  0  0  0  0  0  # atno 8268 bound_to 5068
   12.8608   -2.7391    9.2065 LP  0  0  0  0  0  0  0  0  0  0  0  0  # atno 8279 bound_to 5152
   11.2635   -2.4292    9.3459 LP  0  0  0  0  0  0  0  0  0  0  0  0  # atno 8280 bound_to 5152
   15.4490    0.4983    5.0290 LP  0  0  0  0  0  0  0  0  0  0  0  0  # atno 8281 bound_to 5176
   15.2745   -1.0558    4.5589 LP  0  0  0  0  0  0  0  0  0  0  0  0  # atno 8282 bound_to 5176
    1.6967   -0.9806    2.9113 LP  0  0  0  0  0  0  0  0  0  0  0  0  # atno 8283 bound_to 5703
    2.0320    0.5871    2.6006 LP  0  0  0  0  0  0  0  0  0  0  0  0  # atno 8284 bound_to 5703
    4.7930    3.8967    3.2558 LP  0  0  0  0  0  0  0  0  0  0  0  0  # atno 8309 bound_to 8031
    5.3769    5.4098    3.4467 LP  0  0  0  0  0  0  0  0  0  0  0  0  # atno 8310 bound_to 8031
   -2.9611   -0.5612    1.2268 LP  0  0  0  0  0  0  0  0  0  0  0  0  # atno 8323 bound_to 2745
   -3.2663   -0.1801   -0.3314 LP  0  0  0  0  0  0  0  0  0  0  0  0  # atno 8324 bound_to 2745
   17.8161    7.0988    1.7996 LP  0  0  0  0  0  0  0  0  0  0  0  0  # atno 8335 bound_to 1361
   17.8636    7.7937    3.2766 LP  0  0  0  0  0  0  0  0  0  0  0  0  # atno 8336 bound_to 1361
    5.0566  -10.0926    6.6946 LP  0  0  0  0  0  0  0  0  0  0  0  0  # atno 8342 bound_to 2551
    5.1104   -9.6338    8.2609 LP  0  0  0  0  0  0  0  0  0  0  0  0  # atno 8343 bound_to 2551

