
193|LMW3_p|sdf|193|dock18
  -GOLD-   61022 3 13D 1   1.00000     0.00000

 95 98  0  0  0  0  0  0  0  0  2 V2000
   18.1308    5.2081    1.4620 O   0  0  0  0  0  0  0  0  0  0  0  0
   18.2774    4.0050    1.5820 C   0  0  0  0  0  0  0  0  0  0  0  0
   18.2905    3.2020    0.5054 O   0  5  0  0  0  0  0  0  0  0  0  0
   18.4659    3.2526    2.8500 C   0  0  0  0  0  0  0  0  0  0  0  0
   17.9619    3.8206    3.9642 C   0  0  0  0  0  0  0  0  0  0  0  0
   19.1680    1.9308    2.7781 C   0  0  0  0  0  0  0  0  0  0  0  0
   18.0313    3.2899    5.3748 C   0  0  0  0  0  0  0  0  0  0  0  0
   16.6452    2.8563    5.8941 C   0  0  2  0  0  0  0  0  0  0  0  0
   16.8630    1.9972    7.0354 O   0  0  0  0  0  0  0  0  0  0  0  0
   15.7675    2.1307    4.8177 C   0  0  2  0  0  0  0  0  0  0  0  0
   17.4849    2.5603    8.1075 C   0  0  0  0  0  0  0  0  0  0  0  0
   14.2750    1.9315    5.2313 C   0  0  2  0  0  0  0  0  0  0  0  0
   16.4487    0.8064    4.4455 C   0  0  0  0  0  0  0  0  0  0  0  0
   18.3015    3.4688    8.0604 O   0  0  0  0  0  0  0  0  0  0  0  0
   17.0116    1.9089    9.3707 C   0  0  0  0  0  0  0  0  0  0  0  0
   13.2365    1.4374    4.1766 C   0  0  2  0  0  0  0  0  0  0  0  0
   13.6118    3.2338    5.7604 C   0  0  0  0  0  0  0  0  0  0  0  0
   11.8733    1.7394    4.9067 C   0  0  1  0  0  0  0  0  0  0  0  0
   13.2573   -0.0621    3.8417 C   0  0  0  0  0  0  0  0  0  0  0  0
   13.4129    2.2419    2.8481 C   0  0  0  0  0  0  0  0  0  0  0  0
   12.1184    3.2057    5.3591 C   0  0  1  0  0  0  0  0  0  0  0  0
   10.7092    1.4390    3.9523 C   0  0  0  0  0  0  0  0  0  0  0  0
   11.6022    0.8728    6.1814 C   0  0  0  0  0  0  0  0  0  0  0  0
   11.9620   -0.5055    3.1994 C   0  0  0  0  0  0  0  0  0  0  0  0
   11.2847    3.5893    6.4645 O   0  0  0  0  0  0  0  0  0  0  0  0
   10.7953    0.1877    3.1800 C   0  0  0  0  0  0  0  0  0  0  0  0
    9.6357    2.2334    3.8739 C   0  0  0  0  0  0  0  0  0  0  0  0
   11.4635    4.8573    6.9256 C   0  0  0  0  0  0  0  0  0  0  0  0
    9.5340   -0.2942    2.3844 C   0  0  2  0  0  0  0  0  0  0  0  0
    8.4340    1.9570    3.0485 C   0  0  0  0  0  0  0  0  0  0  0  0
   12.2646    5.6697    6.4866 O   0  0  0  0  0  0  0  0  0  0  0  0
   10.5295    5.1202    8.0665 C   0  0  0  0  0  0  0  0  0  0  0  0
    8.5934    0.8976    1.9305 C   0  0  2  0  0  0  0  0  0  0  0  0
    8.7322   -1.2620    3.2867 C   0  0  0  0  0  0  0  0  0  0  0  0
   10.0407   -1.0557    1.1251 C   0  0  0  0  0  0  0  0  0  0  0  0
    7.1545    0.4711    1.3683 C   0  0  0  0  0  0  0  0  0  0  0  0
    7.4343   -1.7583    2.6456 C   0  0  0  0  0  0  0  0  0  0  0  0
    6.4825   -0.6151    2.2697 C   0  0  1  0  0  0  0  0  0  0  0  0
    7.2346   -0.0646   -0.0868 C   0  0  0  0  0  0  0  0  0  0  0  0
    6.2098    1.7050    1.2623 C   0  0  0  0  0  0  0  0  0  0  0  0
    6.0085   -0.0062    3.4914 O   0  0  0  0  0  0  0  0  0  0  0  0
    4.7976    0.6120    3.4405 C   0  0  0  0  0  0  0  0  0  0  0  0
    3.9623    0.4774    2.5587 O   0  0  0  0  0  0  0  0  0  0  0  0
    4.6289    1.4936    4.6396 C   0  0  0  0  0  0  0  0  0  0  0  0
   17.4730    4.7207    3.8378 H   0  0  0  0  0  0  0  0  0  0  0  0
   18.7923    1.3721    1.9465 H   0  0  0  0  0  0  0  0  0  0  0  0
   18.9946    1.3851    3.6821 H   0  0  0  0  0  0  0  0  0  0  0  0
   20.2187    2.0912    2.6544 H   0  0  0  0  0  0  0  0  0  0  0  0
   18.4163    4.0564    6.0143 H   0  0  0  0  0  0  0  0  0  0  0  0
   18.6695    2.4311    5.3753 H   0  0  0  0  0  0  0  0  0  0  0  0
   16.0925    3.7336    6.1582 H   0  0  0  0  0  0  0  0  0  0  0  0
   15.7093    2.7681    3.9603 H   0  0  0  0  0  0  0  0  0  0  0  0
   14.4382    1.1554    5.9496 H   0  0  0  0  0  0  0  0  0  0  0  0
   17.2861    0.6423    5.0910 H   0  0  0  0  0  0  0  0  0  0  0  0
   16.7841    0.8509    3.4304 H   0  0  0  0  0  0  0  0  0  0  0  0
   15.7505    0.0030    4.5555 H   0  0  0  0  0  0  0  0  0  0  0  0
   15.9791    2.1423    9.5272 H   0  0  0  0  0  0  0  0  0  0  0  0
   17.5881    2.2708   10.1963 H   0  0  0  0  0  0  0  0  0  0  0  0
   17.1294    0.8485    9.2909 H   0  0  0  0  0  0  0  0  0  0  0  0
   14.0889    4.0871    5.3252 H   0  0  0  0  0  0  0  0  0  0  0  0
   13.7101    3.2958    6.8241 H   0  0  0  0  0  0  0  0  0  0  0  0
   13.4058   -0.6177    4.7441 H   0  0  0  0  0  0  0  0  0  0  0  0
   14.0532   -0.2399    3.1490 H   0  0  0  0  0  0  0  0  0  0  0  0
   14.1498    1.7640    2.2369 H   0  0  0  0  0  0  0  0  0  0  0  0
   13.7291    3.2388    3.0741 H   0  0  0  0  0  0  0  0  0  0  0  0
   12.4807    2.2736    2.3238 H   0  0  0  0  0  0  0  0  0  0  0  0
   11.8784    3.8999    4.5811 H   0  0  0  0  0  0  0  0  0  0  0  0
   11.2573   -0.0963    5.8870 H   0  0  0  0  0  0  0  0  0  0  0  0
   10.8571    1.3486    6.7842 H   0  0  0  0  0  0  0  0  0  0  0  0
   12.5067    0.7738    6.7444 H   0  0  0  0  0  0  0  0  0  0  0  0
   11.9655   -1.4246    2.7300 H   0  0  0  0  0  0  0  0  0  0  0  0
    9.6439    3.1034    4.4289 H   0  0  0  0  0  0  0  0  0  0  0  0
    8.1386    2.8757    2.5862 H   0  0  0  0  0  0  0  0  0  0  0  0
    7.7130    1.5487    3.7254 H   0  0  0  0  0  0  0  0  0  0  0  0
   10.2891    6.1624    8.0977 H   0  0  0  0  0  0  0  0  0  0  0  0
   10.9989    4.8347    8.9847 H   0  0  0  0  0  0  0  0  0  0  0  0
    9.6333    4.5513    7.9322 H   0  0  0  0  0  0  0  0  0  0  0  0
    9.1106    1.3218    1.0954 H   0  0  0  0  0  0  0  0  0  0  0  0
    8.4883   -0.7538    4.1962 H   0  0  0  0  0  0  0  0  0  0  0  0
    9.3490   -2.1201    3.4548 H   0  0  0  0  0  0  0  0  0  0  0  0
    9.2253   -1.2108    0.4499 H   0  0  0  0  0  0  0  0  0  0  0  0
   10.4453   -2.0017    1.4191 H   0  0  0  0  0  0  0  0  0  0  0  0
   10.8001   -0.4781    0.6406 H   0  0  0  0  0  0  0  0  0  0  0  0
    6.9362   -2.4044    3.3380 H   0  0  0  0  0  0  0  0  0  0  0  0
    7.6958   -2.2701    1.7431 H   0  0  0  0  0  0  0  0  0  0  0  0
    5.6784   -1.0285    1.6975 H   0  0  0  0  0  0  0  0  0  0  0  0
    8.1380    0.2804   -0.5447 H   0  0  0  0  0  0  0  0  0  0  0  0
    6.3936    0.2910   -0.6446 H   0  0  0  0  0  0  0  0  0  0  0  0
    7.2274   -1.1346   -0.0738 H   0  0  0  0  0  0  0  0  0  0  0  0
    6.0804    2.1394    2.2316 H   0  0  0  0  0  0  0  0  0  0  0  0
    5.2596    1.3950    0.8807 H   0  0  0  0  0  0  0  0  0  0  0  0
    6.6406    2.4283    0.6020 H   0  0  0  0  0  0  0  0  0  0  0  0
    5.3488    2.2845    4.6050 H   0  0  0  0  0  0  0  0  0  0  0  0
    4.7746    0.9173    5.5293 H   0  0  0  0  0  0  0  0  0  0  0  0
    3.6427    1.9088    4.6412 H   0  0  0  0  0  0  0  0  0  0  0  0
  1  2  2  0  0  0  0
  2  3  1  0  0  0  0
  2  4  1  0  0  0  0
  4  5  2  0  0  0  0
  4  6  1  0  0  0  0
  5  7  1  0  0  0  0
  5 45  1  0  0  0  0
  6 46  1  0  0  0  0
  6 47  1  0  0  0  0
  6 48  1  0  0  0  0
  7  8  1  0  0  0  0
  7 49  1  0  0  0  0
  7 50  1  0  0  0  0
  8  9  1  0  0  0  0
  8 10  1  0  0  0  0
  8 51  1  0  0  0  0
  9 11  1  0  0  0  0
 10 12  1  0  0  0  0
 10 13  1  0  0  0  0
 10 52  1  0  0  0  0
 11 14  2  0  0  0  0
 11 15  1  0  0  0  0
 12 16  1  0  0  0  0
 12 17  1  0  0  0  0
 12 53  1  0  0  0  0
 13 54  1  0  0  0  0
 13 55  1  0  0  0  0
 13 56  1  0  0  0  0
 15 57  1  0  0  0  0
 15 58  1  0  0  0  0
 15 59  1  0  0  0  0
 16 18  1  0  0  0  0
 16 19  1  0  0  0  0
 16 20  1  0  0  0  0
 17 21  1  0  0  0  0
 17 60  1  0  0  0  0
 17 61  1  0  0  0  0
 18 22  1  0  0  0  0
 18 23  1  0  0  0  0
 18 21  1  0  0  0  0
 19 24  1  0  0  0  0
 19 62  1  0  0  0  0
 19 63  1  0  0  0  0
 20 64  1  0  0  0  0
 20 65  1  0  0  0  0
 20 66  1  0  0  0  0
 21 25  1  0  0  0  0
 21 67  1  0  0  0  0
 22 26  1  0  0  0  0
 22 27  2  0  0  0  0
 23 68  1  0  0  0  0
 23 69  1  0  0  0  0
 23 70  1  0  0  0  0
 24 26  2  0  0  0  0
 24 71  1  0  0  0  0
 25 28  1  0  0  0  0
 26 29  1  0  0  0  0
 27 30  1  0  0  0  0
 27 72  1  0  0  0  0
 28 31  2  0  0  0  0
 28 32  1  0  0  0  0
 29 33  1  0  0  0  0
 29 34  1  0  0  0  0
 29 35  1  0  0  0  0
 30 33  1  0  0  0  0
 30 73  1  0  0  0  0
 30 74  1  0  0  0  0
 32 75  1  0  0  0  0
 32 76  1  0  0  0  0
 32 77  1  0  0  0  0
 33 36  1  0  0  0  0
 33 78  1  0  0  0  0
 34 37  1  0  0  0  0
 34 79  1  0  0  0  0
 34 80  1  0  0  0  0
 35 81  1  0  0  0  0
 35 82  1  0  0  0  0
 35 83  1  0  0  0  0
 36 38  1  0  0  0  0
 36 39  1  0  0  0  0
 36 40  1  0  0  0  0
 37 38  1  0  0  0  0
 37 84  1  0  0  0  0
 37 85  1  0  0  0  0
 38 41  1  0  0  0  0
 38 86  1  0  0  0  0
 39 87  1  0  0  0  0
 39 88  1  0  0  0  0
 39 89  1  0  0  0  0
 40 90  1  0  0  0  0
 40 91  1  0  0  0  0
 40 92  1  0  0  0  0
 41 42  1  0  0  0  0
 42 43  2  0  0  0  0
 42 44  1  0  0  0  0
 44 93  1  0  0  0  0
 44 94  1  0  0  0  0
 44 95  1  0  0  0  0
M  CHG  1   3  -1
M  END
>  <Code-name>
193

>  <Compound>
Ganoderic Acid T

>  <Specie>
ganoderma lucidum

>  <Reference>
Paterson 2010

>  <Organism>
Inhibitor dna-topoisomerase

>  <Smiles>
C[C@H]([C@H](C/C=C(\C)/C(O)=O)OC(C)=O)[C@@H](C[C@@H]1OC(C)=O)[C@]2(C)[C@]1(C)C1=CC[C@H](C(C)(C)[C@@H](CC3)OC(C)=O)[C@@]3(C)C1=CC2

>  <MMFF94 Energy>
84.346

>  <Total Molweight>
612.801

>  <Molweight>
612.801

>  <Monoisotopic Mass>
612.366220

>  <cLogP>
6.4498

>  <cLogS>
-6.132

>  <H-Acceptors>
8

>  <H-Donors>
1

>  <Total Surface Area>
462.78

>  <Relative PSA>
0.20584

>  <Polar Surface Area>
116.2

>  <Druglikeness>
-0.23763

>  <Mutagenic>
none

>  <Tumorigenic>
none

>  <Reproductive Effective>
none

>  <Irritant>
none

>  <Nasty Functions>


>  <Shape Index>
0.43182

>  <Molecular Flexibility>
0.33867

>  <Molecular Complexity>
1.0564

>  <Fragments>
1

>  <Non-H Atoms>
44

>  <Non-C/H Atoms>
8

>  <Metal-Atoms>
0

>  <Electronegative Atoms>
8

>  <Stereo Centers>
9

>  <Rotatable Bonds>
11

>  <Rings Closures>
4

>  <Small Rings>
4

>  <Aromatic Rings>
0

>  <Aromatic Atoms>
0

>  <sp3-Atoms>
30

>  <Symmetric atoms>
1

>  <Amides>
0

>  <Amines>
0

>  <Alkyl-Amines>
0

>  <Aromatic Amines>
0

>  <Aromatic Nitrogens>
0

>  <Basic Nitrogens>
0

>  <Acidic Oxygens>
1

>  <Stereo Configuration>
this enantiomer

> <Gold.Version>
5.8.1

> <Gold.Id.Protein>
ID_2|Prot_COX2_5IKQ_Alig|mol2

> <Gold.Goldscore.Fitness>
-73.5466

> <Gold.Goldscore.Internal.Vdw>
-42.6280

> <Gold.Goldscore.Internal.Torsion>
-16.9279

> <Gold.Goldscore.External.Vdw>
-42.9861

> <Gold.Goldscore.Internal.HBond>
0.0000

> <Gold.Goldscore.External.HBond>
4.3621

> <Gold.Goldscore.Internal.Correction>
-40.7531

> <Gold.Goldscore.Hbonds>
donor molecule, donor type, donor heavy atom, donor atom, acceptor molecule, acceptor atom, score
      P1  H  1361  1366       L1     1  0.73

> <Gold.Goldscore.Internal.Vdw.Weighted>
-42.6280

> <Gold.Goldscore.Internal.Torsion.Weighted>
-16.9279

> <Gold.Goldscore.External.Vdw.Weighted>
-59.1058

> <Gold.Goldscore.Internal.HBond.Weighted>
0.0000

> <Gold.Goldscore.External.HBond.Weighted>
4.3621

> <Gold.Goldscore.Internal.Correction.Weighted>
-40.7531

> <Gold.Protein.RotatedTorsions>
[ 5077 5068 5067 5065 ] final  155.99 input  179.94 | X-H torsion
[ 5157 5152 5151 5148 ] final -154.10 input -179.92 | X-H torsion
[ 5185 5176 5175 5173 ] final   28.29 input -179.99 | X-H torsion
[ 5712 5703 5702 5700 ] final  -12.65 input  180.00 | X-H torsion
[ 8036 8031 8030 8027 ] final -109.47 input -179.94 | X-H torsion
[ 2749 2745 2743 2740 ] final   62.40 input  -60.05 | X-H torsion
[ 1366 1361 1360 1357 ] final  104.51 input  -60.09 | X-H torsion
[ 2556 2551 2550 2547 ] final  -43.55 input   59.97 | X-H torsion

> <Gold.Protein.ActiveResidues>
 PRO86   VAL89   HIS90   LEU93   THR94   ILE112  MET113  TYR115  VAL116  LEU117 
 THR118  SER119  ARG120  SER121  LEU123  ILE124  GLN192  SER194  PHE198  PHE201 
 ALA202  GLN203  PHE205  THR206  PHE209  PHE210  VAL228  ILE341  ILE343  VAL344 
 ILE345  GLU346  ASP347  TYR348  VAL349  GLN350  HIS351  LEU352  SER353  GLY354 
 TYR355  PHE357  LEU359  LYS360  GLU380  PHE381  ASN382  THR383  LEU384  TYR385 
 HIS386  TRP387  LEU390  VAL434  LEU507  ARG513  ALA516  ILE517  PHE518  GLY519 
 GLU520  THR521  MET522  VAL523  GLU524  VAL525  GLY526  ALA527  PRO528  PHE529 
 SER530  LEU531  LYS532  GLY533  LEU534  MET535  COH609 

> <Gold.Protein.RotatedAtoms>
   18.4097    6.7135    2.0436 H   0  0  0  0  0  0  0  0  0  0  0  0  # atno 1366 bound_to 1361
    4.8404   -9.2137    8.1186 H   0  0  0  0  0  0  0  0  0  0  0  0  # atno 2556 bound_to 2551
   -4.0313    0.2522    0.1406 H   0  0  0  0  0  0  0  0  0  0  0  0  # atno 2749 bound_to 2745
    1.6619   -1.3920    3.6914 H   0  0  0  0  0  0  0  0  0  0  0  0  # atno 5077 bound_to 5068
   12.0466   -1.3355    9.2482 H   0  0  0  0  0  0  0  0  0  0  0  0  # atno 5157 bound_to 5152
   15.6698   -1.0935    4.6467 H   0  0  0  0  0  0  0  0  0  0  0  0  # atno 5185 bound_to 5176
    1.7387   -0.8271    2.8314 H   0  0  0  0  0  0  0  0  0  0  0  0  # atno 5712 bound_to 5703
    6.2579    4.4926    3.7122 H   0  0  0  0  0  0  0  0  0  0  0  0  # atno 8036 bound_to 8031
    0.4982   -2.1871    4.2159 LP  0  0  0  0  0  0  0  0  0  0  0  0  # atno 8267 bound_to 5068
    1.9961   -2.8147    4.0458 LP  0  0  0  0  0  0  0  0  0  0  0  0  # atno 8268 bound_to 5068
   13.0196   -2.4825    9.1961 LP  0  0  0  0  0  0  0  0  0  0  0  0  # atno 8279 bound_to 5152
   11.4061   -2.6950    9.3305 LP  0  0  0  0  0  0  0  0  0  0  0  0  # atno 8280 bound_to 5152
   16.7142   -0.0834    5.0310 LP  0  0  0  0  0  0  0  0  0  0  0  0  # atno 8281 bound_to 5176
   15.1258    0.2800    4.9229 LP  0  0  0  0  0  0  0  0  0  0  0  0  # atno 8282 bound_to 5176
    2.1112    0.6061    2.5748 LP  0  0  0  0  0  0  0  0  0  0  0  0  # atno 8283 bound_to 5703
    3.1735   -0.6259    2.4318 LP  0  0  0  0  0  0  0  0  0  0  0  0  # atno 8284 bound_to 5703
    5.0671    3.6485    3.3526 LP  0  0  0  0  0  0  0  0  0  0  0  0  # atno 8309 bound_to 8031
    5.0364    5.2810    3.3298 LP  0  0  0  0  0  0  0  0  0  0  0  0  # atno 8310 bound_to 8031
   -3.6282   -0.2118    1.5137 LP  0  0  0  0  0  0  0  0  0  0  0  0  # atno 8323 bound_to 2745
   -2.7547   -0.5431    0.1743 LP  0  0  0  0  0  0  0  0  0  0  0  0  # atno 8324 bound_to 2745
   17.4998    7.7907    2.5686 LP  0  0  0  0  0  0  0  0  0  0  0  0  # atno 8335 bound_to 1361
   18.6755    7.1060    3.4717 LP  0  0  0  0  0  0  0  0  0  0  0  0  # atno 8336 bound_to 1361
    4.5069   -8.9181    6.6814 LP  0  0  0  0  0  0  0  0  0  0  0  0  # atno 8342 bound_to 2551
    5.2329  -10.3017    7.1561 LP  0  0  0  0  0  0  0  0  0  0  0  0  # atno 8343 bound_to 2551

