
194|LMW3_p|sdf|194|dock2
  -GOLD-   61022 3 23D 1   1.00000     0.00000

 80 83  0  0  0  0  0  0  0  0  2 V2000
    5.7804    0.3409   -1.3008 O   0  0  0  0  0  0  0  0  0  0  0  0
    6.2532    0.2739   -0.1646 C   0  0  0  0  0  0  0  0  0  0  0  0
    6.9440   -0.9906    0.3658 C   0  0  0  0  0  0  0  0  0  0  0  0
    6.0569    1.4175    0.7966 C   0  0  0  0  0  0  0  0  0  0  0  0
    8.1959   -0.5816    1.2166 C   0  0  1  0  0  0  0  0  0  0  0  0
    7.4093   -1.8197   -0.8597 C   0  0  0  0  0  0  0  0  0  0  0  0
    5.8926   -1.8347    1.1015 C   0  0  0  0  0  0  0  0  0  0  0  0
    7.3614    1.7843    1.4853 C   0  0  0  0  0  0  0  0  0  0  0  0
    8.0274    0.6010    2.2393 C   0  0  2  0  0  0  0  0  0  0  0  0
    8.8971   -1.7784    1.8907 C   0  0  0  0  0  0  0  0  0  0  0  0
    9.4276    0.9882    2.8045 C   0  0  0  0  0  0  0  0  0  0  0  0
    7.1736    0.2469    3.4816 C   0  0  0  0  0  0  0  0  0  0  0  0
   10.1697   -1.3534    2.5542 C   0  0  0  0  0  0  0  0  0  0  0  0
   10.4427   -0.0870    2.9146 C   0  0  0  0  0  0  0  0  0  0  0  0
    9.7162    2.2334    3.2551 C   0  0  0  0  0  0  0  0  0  0  0  0
   11.8287    0.3432    3.3983 C   0  0  1  0  0  0  0  0  0  0  0  0
   10.9804    2.6289    3.9886 C   0  0  0  0  0  0  0  0  0  0  0  0
   11.6963    1.3920    4.5573 C   0  0  2  0  0  0  0  0  0  0  0  0
   12.7557   -0.7047    4.0500 C   0  0  0  0  0  0  0  0  0  0  0  0
   12.5632    0.8620    2.1196 C   0  0  0  0  0  0  0  0  0  0  0  0
   13.1865    1.5781    4.9832 C   0  0  2  0  0  0  0  0  0  0  0  0
   10.8605    0.8597    5.7691 C   0  0  0  0  0  0  0  0  0  0  0  0
   13.7232    0.1168    4.9291 C   0  0  2  0  0  0  0  0  0  0  0  0
   13.4720    2.2585    6.3487 C   0  0  2  0  0  0  0  0  0  0  0  0
   15.0286    0.1070    4.3697 O   0  0  0  0  0  0  0  0  0  0  0  0
   12.7781    3.5928    6.5136 C   0  0  0  0  0  0  0  0  0  0  0  0
   14.9666    2.4288    6.7052 C   0  0  0  0  0  0  0  0  0  0  0  0
   12.1908    3.9658    7.5166 O   0  0  0  0  0  0  0  0  0  0  0  0
   12.8893    4.4109    5.4531 O   0  5  0  0  0  0  0  0  0  0  0  0
   15.8788    2.8707    5.5523 C   0  0  0  0  0  0  0  0  0  0  0  0
   17.3221    3.0100    5.9983 C   0  0  0  0  0  0  0  0  0  0  0  0
   17.6637    2.7701    7.2771 C   0  0  0  0  0  0  0  0  0  0  0  0
   18.3345    3.4006    4.9301 C   0  0  0  0  0  0  0  0  0  0  0  0
   19.7769    3.2441    5.4207 C   0  0  0  0  0  0  0  0  0  0  0  0
   18.0920    4.8205    4.4114 C   0  0  0  0  0  0  0  0  0  0  0  0
    5.3391    1.1323    1.5371 H   0  0  0  0  0  0  0  0  0  0  0  0
    5.7124    2.2682    0.2465 H   0  0  0  0  0  0  0  0  0  0  0  0
    8.8287   -0.1818    0.4521 H   0  0  0  0  0  0  0  0  0  0  0  0
    6.5691   -2.0295   -1.4881 H   0  0  0  0  0  0  0  0  0  0  0  0
    7.8425   -2.7390   -0.5247 H   0  0  0  0  0  0  0  0  0  0  0  0
    8.1373   -1.2627   -1.4116 H   0  0  0  0  0  0  0  0  0  0  0  0
    6.0100   -1.7095    2.1576 H   0  0  0  0  0  0  0  0  0  0  0  0
    6.0221   -2.8661    0.8479 H   0  0  0  0  0  0  0  0  0  0  0  0
    4.9131   -1.5165    0.8114 H   0  0  0  0  0  0  0  0  0  0  0  0
    7.1627    2.5644    2.1902 H   0  0  0  0  0  0  0  0  0  0  0  0
    8.0433    2.0884    0.7188 H   0  0  0  0  0  0  0  0  0  0  0  0
    9.1194   -2.5164    1.1486 H   0  0  0  0  0  0  0  0  0  0  0  0
    8.2427   -2.1799    2.6361 H   0  0  0  0  0  0  0  0  0  0  0  0
    6.1683    0.0428    3.1772 H   0  0  0  0  0  0  0  0  0  0  0  0
    7.1791    1.0706    4.1646 H   0  0  0  0  0  0  0  0  0  0  0  0
    7.5834   -0.6172    3.9616 H   0  0  0  0  0  0  0  0  0  0  0  0
   10.8808   -2.0761    2.7467 H   0  0  0  0  0  0  0  0  0  0  0  0
    9.0167    2.9729    3.0843 H   0  0  0  0  0  0  0  0  0  0  0  0
   10.7270    3.2874    4.7930 H   0  0  0  0  0  0  0  0  0  0  0  0
   11.6371    3.1162    3.2985 H   0  0  0  0  0  0  0  0  0  0  0  0
   13.2948   -1.2480    3.3023 H   0  0  0  0  0  0  0  0  0  0  0  0
   12.2100   -1.4289    4.6182 H   0  0  0  0  0  0  0  0  0  0  0  0
   11.8844    0.8594    1.2926 H   0  0  0  0  0  0  0  0  0  0  0  0
   13.3937    0.2236    1.9014 H   0  0  0  0  0  0  0  0  0  0  0  0
   12.9144    1.8584    2.2896 H   0  0  0  0  0  0  0  0  0  0  0  0
   13.6694    2.2792    4.3350 H   0  0  0  0  0  0  0  0  0  0  0  0
   11.3334   -0.0108    6.1736 H   0  0  0  0  0  0  0  0  0  0  0  0
    9.8740    0.6090    5.4393 H   0  0  0  0  0  0  0  0  0  0  0  0
   10.8030    1.6171    6.5228 H   0  0  0  0  0  0  0  0  0  0  0  0
   13.7781   -0.3052    5.9107 H   0  0  0  0  0  0  0  0  0  0  0  0
   13.0584    1.5522    7.0379 H   0  0  0  0  0  0  0  0  0  0  0  0
   14.9893    0.4169    3.4514 H   0  0  0  0  0  0  0  0  0  0  0  0
   15.3272    1.4892    7.0683 H   0  0  0  0  0  0  0  0  0  0  0  0
   15.0064    3.2170    7.4277 H   0  0  0  0  0  0  0  0  0  0  0  0
   15.5376    3.8152    5.1830 H   0  0  0  0  0  0  0  0  0  0  0  0
   15.8372    2.1219    4.7892 H   0  0  0  0  0  0  0  0  0  0  0  0
   16.9396    2.5082    7.9642 H   0  0  0  0  0  0  0  0  0  0  0  0
   18.6499    2.8479    7.5711 H   0  0  0  0  0  0  0  0  0  0  0  0
   18.1930    2.7219    4.1151 H   0  0  0  0  0  0  0  0  0  0  0  0
   19.9660    3.9495    6.2027 H   0  0  0  0  0  0  0  0  0  0  0  0
   20.4510    3.4221    4.6091 H   0  0  0  0  0  0  0  0  0  0  0  0
   19.9212    2.2515    5.7932 H   0  0  0  0  0  0  0  0  0  0  0  0
   18.8180    5.0551    3.6614 H   0  0  0  0  0  0  0  0  0  0  0  0
   18.1778    5.5153    5.2206 H   0  0  0  0  0  0  0  0  0  0  0  0
   17.1105    4.8835    3.9898 H   0  0  0  0  0  0  0  0  0  0  0  0
  1  2  2  0  0  0  0
  2  3  1  0  0  0  0
  2  4  1  0  0  0  0
  3  5  1  0  0  0  0
  3  6  1  0  0  0  0
  3  7  1  0  0  0  0
  4  8  1  0  0  0  0
  4 36  1  0  0  0  0
  4 37  1  0  0  0  0
  5  9  1  0  0  0  0
  5 10  1  0  0  0  0
  5 38  1  0  0  0  0
  6 39  1  0  0  0  0
  6 40  1  0  0  0  0
  6 41  1  0  0  0  0
  7 42  1  0  0  0  0
  7 43  1  0  0  0  0
  7 44  1  0  0  0  0
  8  9  1  0  0  0  0
  8 45  1  0  0  0  0
  8 46  1  0  0  0  0
  9 11  1  0  0  0  0
  9 12  1  0  0  0  0
 10 13  1  0  0  0  0
 10 47  1  0  0  0  0
 10 48  1  0  0  0  0
 11 14  1  0  0  0  0
 11 15  2  0  0  0  0
 12 49  1  0  0  0  0
 12 50  1  0  0  0  0
 12 51  1  0  0  0  0
 13 14  2  0  0  0  0
 13 52  1  0  0  0  0
 14 16  1  0  0  0  0
 15 17  1  0  0  0  0
 15 53  1  0  0  0  0
 16 18  1  0  0  0  0
 16 19  1  0  0  0  0
 16 20  1  0  0  0  0
 17 18  1  0  0  0  0
 17 54  1  0  0  0  0
 17 55  1  0  0  0  0
 18 21  1  0  0  0  0
 18 22  1  0  0  0  0
 19 23  1  0  0  0  0
 19 56  1  0  0  0  0
 19 57  1  0  0  0  0
 20 58  1  0  0  0  0
 20 59  1  0  0  0  0
 20 60  1  0  0  0  0
 21 24  1  0  0  0  0
 21 23  1  0  0  0  0
 21 61  1  0  0  0  0
 22 62  1  0  0  0  0
 22 63  1  0  0  0  0
 22 64  1  0  0  0  0
 23 25  1  0  0  0  0
 23 65  1  0  0  0  0
 24 26  1  0  0  0  0
 24 27  1  0  0  0  0
 24 66  1  0  0  0  0
 25 67  1  0  0  0  0
 26 28  2  0  0  0  0
 26 29  1  0  0  0  0
 27 30  1  0  0  0  0
 27 68  1  0  0  0  0
 27 69  1  0  0  0  0
 30 31  1  0  0  0  0
 30 70  1  0  0  0  0
 30 71  1  0  0  0  0
 31 32  2  0  0  0  0
 31 33  1  0  0  0  0
 32 72  1  0  0  0  0
 32 73  1  0  0  0  0
 33 34  1  0  0  0  0
 33 35  1  0  0  0  0
 33 74  1  0  0  0  0
 34 75  1  0  0  0  0
 34 76  1  0  0  0  0
 34 77  1  0  0  0  0
 35 78  1  0  0  0  0
 35 79  1  0  0  0  0
 35 80  1  0  0  0  0
M  CHG  1  29  -1
M  END
>  <Code-name>
194

>  <Compound>
Polyporenic acid C

>  <Specie>
Piptoporus
betulinus, Daedalea
dickinsii

>  <Reference>
ZAIDMAN et al.,
2005; KAWAGISHI et al., 2002

>  <Organism>
N/A

>  <Smiles>
CC(C)C(CC[C@H]([C@@H]([C@@H](C1)O)[C@]2(C)[C@]1(C)C1=CC[C@@H](C(C)(C)C(CC3)=O)[C@@]3(C)C1=CC2)C(O)=O)=C

>  <MMFF94 Energy>
82.319

>  <Total Molweight>
482.702

>  <Molweight>
482.702

>  <Monoisotopic Mass>
482.339610

>  <cLogP>
6.4465

>  <cLogS>
-5.679

>  <H-Acceptors>
4

>  <H-Donors>
2

>  <Total Surface Area>
366.15

>  <Relative PSA>
0.14278

>  <Polar Surface Area>
74.6

>  <Druglikeness>
-8.1851

>  <Mutagenic>
none

>  <Tumorigenic>
none

>  <Reproductive Effective>
none

>  <Irritant>
none

>  <Nasty Functions>


>  <Shape Index>
0.45714

>  <Molecular Flexibility>
0.35103

>  <Molecular Complexity>
1.0241

>  <Fragments>
1

>  <Non-H Atoms>
35

>  <Non-C/H Atoms>
4

>  <Metal-Atoms>
0

>  <Electronegative Atoms>
4

>  <Stereo Centers>
7

>  <Rotatable Bonds>
6

>  <Rings Closures>
4

>  <Small Rings>
4

>  <Aromatic Rings>
0

>  <Aromatic Atoms>
0

>  <sp3-Atoms>
25

>  <Symmetric atoms>
2

>  <Amides>
0

>  <Amines>
0

>  <Alkyl-Amines>
0

>  <Aromatic Amines>
0

>  <Aromatic Nitrogens>
0

>  <Basic Nitrogens>
0

>  <Acidic Oxygens>
1

>  <Stereo Configuration>
this enantiomer

> <Gold.Version>
5.8.1

> <Gold.Id.Protein>
ID_2|Prot_COX2_5IKQ_Alig|mol2

> <Gold.Goldscore.Fitness>
-46.5461

> <Gold.Goldscore.Internal.Vdw>
-39.3230

> <Gold.Goldscore.Internal.Torsion>
-7.9956

> <Gold.Goldscore.External.Vdw>
-18.4287

> <Gold.Goldscore.Internal.HBond>
0.0000

> <Gold.Goldscore.External.HBond>
0.0000

> <Gold.Goldscore.Internal.Correction>
-26.1119

> <Gold.Goldscore.Internal.Vdw.Weighted>
-39.3230

> <Gold.Goldscore.Internal.Torsion.Weighted>
-7.9956

> <Gold.Goldscore.External.Vdw.Weighted>
-25.3394

> <Gold.Goldscore.Internal.HBond.Weighted>
0.0000

> <Gold.Goldscore.External.HBond.Weighted>
0.0000

> <Gold.Goldscore.Internal.Correction.Weighted>
-26.1119

> <Gold.Protein.RotatedTorsions>
[ 5077 5068 5067 5065 ] final -160.44 input  179.94 | X-H torsion
[ 5157 5152 5151 5148 ] final  160.60 input -179.92 | X-H torsion
[ 5185 5176 5175 5173 ] final  -55.86 input -179.99 | X-H torsion
[ 5712 5703 5702 5700 ] final   90.09 input  180.00 | X-H torsion
[ 8036 8031 8030 8027 ] final -146.10 input -179.94 | X-H torsion
[ 2749 2745 2743 2740 ] final -132.26 input  -60.05 | X-H torsion
[ 1366 1361 1360 1357 ] final  -70.29 input  -60.09 | X-H torsion
[ 2556 2551 2550 2547 ] final  -14.90 input   59.97 | X-H torsion

> <Gold.Protein.ActiveResidues>
 PRO86   VAL89   HIS90   LEU93   THR94   ILE112  MET113  TYR115  VAL116  LEU117 
 THR118  SER119  ARG120  SER121  LEU123  ILE124  GLN192  SER194  PHE198  PHE201 
 ALA202  GLN203  PHE205  THR206  PHE209  PHE210  VAL228  ILE341  ILE343  VAL344 
 ILE345  GLU346  ASP347  TYR348  VAL349  GLN350  HIS351  LEU352  SER353  GLY354 
 TYR355  PHE357  LEU359  LYS360  GLU380  PHE381  ASN382  THR383  LEU384  TYR385 
 HIS386  TRP387  LEU390  VAL434  LEU507  ARG513  ALA516  ILE517  PHE518  GLY519 
 GLU520  THR521  MET522  VAL523  GLU524  VAL525  GLY526  ALA527  PRO528  PHE529 
 SER530  LEU531  LYS532  GLY533  LEU534  MET535  COH609 

> <Gold.Protein.RotatedAtoms>
   17.9927    7.6992    3.2046 H   0  0  0  0  0  0  0  0  0  0  0  0  # atno 1366 bound_to 1361
    5.0081   -9.5665    8.1374 H   0  0  0  0  0  0  0  0  0  0  0  0  # atno 2556 bound_to 2551
   -2.8644   -0.5175    0.8483 H   0  0  0  0  0  0  0  0  0  0  0  0  # atno 2749 bound_to 2745
    2.0913   -1.7896    3.7177 H   0  0  0  0  0  0  0  0  0  0  0  0  # atno 5077 bound_to 5068
   12.6320   -1.4949    9.1965 H   0  0  0  0  0  0  0  0  0  0  0  0  # atno 5157 bound_to 5152
   16.5695   -0.6057    4.9073 H   0  0  0  0  0  0  0  0  0  0  0  0  # atno 5185 bound_to 5176
    2.9185   -0.7880    2.4814 H   0  0  0  0  0  0  0  0  0  0  0  0  # atno 5712 bound_to 5703
    6.1197    4.0189    3.6679 H   0  0  0  0  0  0  0  0  0  0  0  0  # atno 8036 bound_to 8031
    0.6274   -1.5475    3.9620 LP  0  0  0  0  0  0  0  0  0  0  0  0  # atno 8267 bound_to 5068
    1.3527   -2.9782    4.2682 LP  0  0  0  0  0  0  0  0  0  0  0  0  # atno 8268 bound_to 5068
   12.5050   -2.9941    9.2336 LP  0  0  0  0  0  0  0  0  0  0  0  0  # atno 8279 bound_to 5152
   11.2206   -1.9929    9.3547 LP  0  0  0  0  0  0  0  0  0  0  0  0  # atno 8280 bound_to 5152
   15.6182    0.5469    5.0656 LP  0  0  0  0  0  0  0  0  0  0  0  0  # atno 8281 bound_to 5176
   15.1414   -0.9360    4.5755 LP  0  0  0  0  0  0  0  0  0  0  0  0  # atno 8282 bound_to 5176
    1.4886   -0.6816    2.9316 LP  0  0  0  0  0  0  0  0  0  0  0  0  # atno 8283 bound_to 5703
    2.3801    0.6150    2.4951 LP  0  0  0  0  0  0  0  0  0  0  0  0  # atno 8284 bound_to 5703
    4.6869    4.0830    3.2177 LP  0  0  0  0  0  0  0  0  0  0  0  0  # atno 8309 bound_to 8031
    5.5826    5.4149    3.5179 LP  0  0  0  0  0  0  0  0  0  0  0  0  # atno 8310 bound_to 8031
   -3.6086    0.0201   -0.3436 LP  0  0  0  0  0  0  0  0  0  0  0  0  # atno 8323 bound_to 2745
   -4.1719    0.1468    1.1840 LP  0  0  0  0  0  0  0  0  0  0  0  0  # atno 8324 bound_to 2745
   18.9054    6.5626    2.8317 LP  0  0  0  0  0  0  0  0  0  0  0  0  # atno 8335 bound_to 1361
   17.7687    7.1548    1.8199 LP  0  0  0  0  0  0  0  0  0  0  0  0  # atno 8336 bound_to 1361
    4.4543   -8.6632    7.0689 LP  0  0  0  0  0  0  0  0  0  0  0  0  # atno 8342 bound_to 2551
    5.0849  -10.1345    6.7461 LP  0  0  0  0  0  0  0  0  0  0  0  0  # atno 8343 bound_to 2551

