
195|LMW3_p|sdf|195|dock3
  -GOLD-   61022 3 53D 1   1.00000     0.00000

 76 79  0  0  0  0  0  0  0  0  2 V2000
    5.8871    0.2330   -1.3730 O   0  0  0  0  0  0  0  0  0  0  0  0
    6.3340    0.1996   -0.2249 C   0  0  0  0  0  0  0  0  0  0  0  0
    7.0111   -1.0490    0.3580 C   0  0  0  0  0  0  0  0  0  0  0  0
    6.1159    1.3708    0.6974 C   0  0  0  0  0  0  0  0  0  0  0  0
    8.2413   -0.6161    1.2282 C   0  0  1  0  0  0  0  0  0  0  0  0
    7.5068   -1.9120   -0.8316 C   0  0  0  0  0  0  0  0  0  0  0  0
    5.9413   -1.8726    1.0904 C   0  0  0  0  0  0  0  0  0  0  0  0
    7.4030    1.7567    1.4079 C   0  0  0  0  0  0  0  0  0  0  0  0
    8.0477    0.5950    2.2124 C   0  0  2  0  0  0  0  0  0  0  0  0
    8.9247   -1.7932    1.9532 C   0  0  0  0  0  0  0  0  0  0  0  0
    9.4327    0.9981    2.8028 C   0  0  0  0  0  0  0  0  0  0  0  0
    7.1616    0.2762    3.4414 C   0  0  0  0  0  0  0  0  0  0  0  0
   10.1810   -1.3488    2.6341 C   0  0  0  0  0  0  0  0  0  0  0  0
   10.4451   -0.0728    2.9649 C   0  0  0  0  0  0  0  0  0  0  0  0
    9.7086    2.2543    3.2305 C   0  0  0  0  0  0  0  0  0  0  0  0
   11.8181    0.3715    3.4679 C   0  0  1  0  0  0  0  0  0  0  0  0
   10.9526    2.6695    3.9871 C   0  0  0  0  0  0  0  0  0  0  0  0
   11.6587    1.4468    4.5982 C   0  0  2  0  0  0  0  0  0  0  0  0
   12.7337   -0.6515    4.1675 C   0  0  0  0  0  0  0  0  0  0  0  0
   12.5841    0.8600    2.1959 C   0  0  0  0  0  0  0  0  0  0  0  0
   13.1355    1.6479    5.0538 C   0  0  2  0  0  0  0  0  0  0  0  0
   10.8037    0.9395    5.8063 C   0  0  0  0  0  0  0  0  0  0  0  0
   13.6970    0.1977    5.0206 C   0  0  0  0  0  0  0  0  0  0  0  0
   13.4038    2.3635    6.4023 C   0  0  2  0  0  0  0  0  0  0  0  0
   12.8901    3.7857    6.3450 C   0  0  0  0  0  0  0  0  0  0  0  0
   14.9098    2.4093    6.7413 C   0  0  0  0  0  0  0  0  0  0  0  0
   12.9163    4.5335    5.3823 O   0  0  0  0  0  0  0  0  0  0  0  0
   12.3801    4.2001    7.5201 O   0  5  0  0  0  0  0  0  0  0  0  0
   15.7640    2.9153    5.5723 C   0  0  0  0  0  0  0  0  0  0  0  0
   17.2181    2.9757    5.9504 C   0  0  0  0  0  0  0  0  0  0  0  0
   18.2110    3.5925    5.2803 C   0  0  0  0  0  0  0  0  0  0  0  0
   18.0491    4.3117    3.9692 C   0  0  0  0  0  0  0  0  0  0  0  0
   19.6189    3.5881    5.8159 C   0  0  0  0  0  0  0  0  0  0  0  0
    5.3792    1.1079    1.4276 H   0  0  0  0  0  0  0  0  0  0  0  0
    5.7871    2.2054    0.1140 H   0  0  0  0  0  0  0  0  0  0  0  0
    8.8935   -0.2382    0.4688 H   0  0  0  0  0  0  0  0  0  0  0  0
    7.9225   -2.8254   -0.4607 H   0  0  0  0  0  0  0  0  0  0  0  0
    8.2554   -1.3741   -1.3749 H   0  0  0  0  0  0  0  0  0  0  0  0
    6.6844   -2.1317   -1.4799 H   0  0  0  0  0  0  0  0  0  0  0  0
    6.0583   -2.9076    0.8453 H   0  0  0  0  0  0  0  0  0  0  0  0
    4.9690   -1.5424    0.7895 H   0  0  0  0  0  0  0  0  0  0  0  0
    6.0514   -1.7416    2.1466 H   0  0  0  0  0  0  0  0  0  0  0  0
    7.1877    2.5570    2.0847 H   0  0  0  0  0  0  0  0  0  0  0  0
    8.1045    2.0381    0.6506 H   0  0  0  0  0  0  0  0  0  0  0  0
    9.1641   -2.5525    1.2384 H   0  0  0  0  0  0  0  0  0  0  0  0
    8.2524   -2.1733    2.6938 H   0  0  0  0  0  0  0  0  0  0  0  0
    7.1433    1.1217    4.0969 H   0  0  0  0  0  0  0  0  0  0  0  0
    7.5626   -0.5691    3.9606 H   0  0  0  0  0  0  0  0  0  0  0  0
    6.1664    0.0556    3.1161 H   0  0  0  0  0  0  0  0  0  0  0  0
   10.8876   -2.0652    2.8635 H   0  0  0  0  0  0  0  0  0  0  0  0
    9.0133    2.9883    3.0234 H   0  0  0  0  0  0  0  0  0  0  0  0
   10.6769    3.3429    4.7716 H   0  0  0  0  0  0  0  0  0  0  0  0
   11.6247    3.1458    3.3041 H   0  0  0  0  0  0  0  0  0  0  0  0
   13.2763   -1.2262    3.4464 H   0  0  0  0  0  0  0  0  0  0  0  0
   12.1796   -1.3495    4.7596 H   0  0  0  0  0  0  0  0  0  0  0  0
   11.9340    0.8112    1.3474 H   0  0  0  0  0  0  0  0  0  0  0  0
   13.4353    0.2334    2.0295 H   0  0  0  0  0  0  0  0  0  0  0  0
   12.9072    1.8698    2.3400 H   0  0  0  0  0  0  0  0  0  0  0  0
   13.6182    2.3479    4.4043 H   0  0  0  0  0  0  0  0  0  0  0  0
    9.8184    0.6948    5.4682 H   0  0  0  0  0  0  0  0  0  0  0  0
   10.7454    1.7072    6.5493 H   0  0  0  0  0  0  0  0  0  0  0  0
   11.2625    0.0695    6.2277 H   0  0  0  0  0  0  0  0  0  0  0  0
   14.6733    0.1936    4.5828 H   0  0  0  0  0  0  0  0  0  0  0  0
   13.7744   -0.1998    6.0111 H   0  0  0  0  0  0  0  0  0  0  0  0
   12.8948    1.8047    7.1597 H   0  0  0  0  0  0  0  0  0  0  0  0
   15.2329    1.4225    6.9994 H   0  0  0  0  0  0  0  0  0  0  0  0
   15.0376    3.0927    7.5547 H   0  0  0  0  0  0  0  0  0  0  0  0
   15.4336    3.8950    5.2966 H   0  0  0  0  0  0  0  0  0  0  0  0
   15.6540    2.2365    4.7525 H   0  0  0  0  0  0  0  0  0  0  0  0
   17.4856    2.4903    6.8209 H   0  0  0  0  0  0  0  0  0  0  0  0
   18.5352    5.2635    4.0222 H   0  0  0  0  0  0  0  0  0  0  0  0
   17.0081    4.4537    3.7665 H   0  0  0  0  0  0  0  0  0  0  0  0
   18.4887    3.7297    3.1864 H   0  0  0  0  0  0  0  0  0  0  0  0
   20.3053    3.4162    5.0132 H   0  0  0  0  0  0  0  0  0  0  0  0
   19.7208    2.8114    6.5448 H   0  0  0  0  0  0  0  0  0  0  0  0
   19.8306    4.5334    6.2701 H   0  0  0  0  0  0  0  0  0  0  0  0
  1  2  2  0  0  0  0
  2  3  1  0  0  0  0
  2  4  1  0  0  0  0
  3  5  1  0  0  0  0
  3  6  1  0  0  0  0
  3  7  1  0  0  0  0
  4  8  1  0  0  0  0
  4 34  1  0  0  0  0
  4 35  1  0  0  0  0
  5  9  1  0  0  0  0
  5 10  1  0  0  0  0
  5 36  1  0  0  0  0
  6 37  1  0  0  0  0
  6 38  1  0  0  0  0
  6 39  1  0  0  0  0
  7 40  1  0  0  0  0
  7 41  1  0  0  0  0
  7 42  1  0  0  0  0
  8  9  1  0  0  0  0
  8 43  1  0  0  0  0
  8 44  1  0  0  0  0
  9 11  1  0  0  0  0
  9 12  1  0  0  0  0
 10 13  1  0  0  0  0
 10 45  1  0  0  0  0
 10 46  1  0  0  0  0
 11 14  1  0  0  0  0
 11 15  2  0  0  0  0
 12 47  1  0  0  0  0
 12 48  1  0  0  0  0
 12 49  1  0  0  0  0
 13 14  2  0  0  0  0
 13 50  1  0  0  0  0
 14 16  1  0  0  0  0
 15 17  1  0  0  0  0
 15 51  1  0  0  0  0
 16 18  1  0  0  0  0
 16 19  1  0  0  0  0
 16 20  1  0  0  0  0
 17 18  1  0  0  0  0
 17 52  1  0  0  0  0
 17 53  1  0  0  0  0
 18 21  1  0  0  0  0
 18 22  1  0  0  0  0
 19 23  1  0  0  0  0
 19 54  1  0  0  0  0
 19 55  1  0  0  0  0
 20 56  1  0  0  0  0
 20 57  1  0  0  0  0
 20 58  1  0  0  0  0
 21 24  1  0  0  0  0
 21 23  1  0  0  0  0
 21 59  1  0  0  0  0
 22 60  1  0  0  0  0
 22 61  1  0  0  0  0
 22 62  1  0  0  0  0
 23 63  1  0  0  0  0
 23 64  1  0  0  0  0
 24 25  1  0  0  0  0
 24 26  1  0  0  0  0
 24 65  1  0  0  0  0
 25 27  2  0  0  0  0
 25 28  1  0  0  0  0
 26 29  1  0  0  0  0
 26 66  1  0  0  0  0
 26 67  1  0  0  0  0
 29 30  1  0  0  0  0
 29 68  1  0  0  0  0
 29 69  1  0  0  0  0
 30 31  2  0  0  0  0
 30 70  1  0  0  0  0
 31 32  1  0  0  0  0
 31 33  1  0  0  0  0
 32 71  1  0  0  0  0
 32 72  1  0  0  0  0
 32 73  1  0  0  0  0
 33 74  1  0  0  0  0
 33 75  1  0  0  0  0
 33 76  1  0  0  0  0
M  CHG  1  28  -1
M  END
>  <Code-name>
195

>  <Compound>
Dehydrotrametenonic acid

>  <Specie>
Poria cocos

>  <Reference>
ZAIDMAN et al., 2005

>  <Organism>
Anticancer Activity

>  <Smiles>
C[C@]1(CC2)C3=CC[C@@H](C(C)(C)C(CC4)=O)[C@@]4(C)C3=CC[C@]1(C)[C@H]2[C@@H](CCC=C(C)C)C(O)=O

>  <MMFF94 Energy>
76.266

>  <Total Molweight>
452.676

>  <Molweight>
452.676

>  <Monoisotopic Mass>
452.329045

>  <cLogP>
7.0136

>  <cLogS>
-5.751

>  <H-Acceptors>
3

>  <H-Donors>
1

>  <Total Surface Area>
350.52

>  <Relative PSA>
0.11178

>  <Polar Surface Area>
54.37

>  <Druglikeness>
-4.8656

>  <Mutagenic>
none

>  <Tumorigenic>
none

>  <Reproductive Effective>
none

>  <Irritant>
none

>  <Nasty Functions>


>  <Shape Index>
0.48485

>  <Molecular Flexibility>
0.31856

>  <Molecular Complexity>
1.0008

>  <Fragments>
1

>  <Non-H Atoms>
33

>  <Non-C/H Atoms>
3

>  <Metal-Atoms>
0

>  <Electronegative Atoms>
3

>  <Stereo Centers>
6

>  <Rotatable Bonds>
5

>  <Rings Closures>
4

>  <Small Rings>
4

>  <Aromatic Rings>
0

>  <Aromatic Atoms>
0

>  <sp3-Atoms>
23

>  <Symmetric atoms>
2

>  <Amides>
0

>  <Amines>
0

>  <Alkyl-Amines>
0

>  <Aromatic Amines>
0

>  <Aromatic Nitrogens>
0

>  <Basic Nitrogens>
0

>  <Acidic Oxygens>
1

>  <Stereo Configuration>
this enantiomer

> <Gold.Version>
5.8.1

> <Gold.Id.Protein>
ID_2|Prot_COX2_5IKQ_Alig|mol2

> <Gold.Goldscore.Fitness>
-28.2364

> <Gold.Goldscore.Internal.Vdw>
-29.2741

> <Gold.Goldscore.Internal.Torsion>
-8.9904

> <Gold.Goldscore.External.Vdw>
-9.5173

> <Gold.Goldscore.Internal.HBond>
0.0000

> <Gold.Goldscore.External.HBond>
0.0000

> <Gold.Goldscore.Internal.Correction>
-23.1143

> <Gold.Goldscore.Internal.Vdw.Weighted>
-29.2741

> <Gold.Goldscore.Internal.Torsion.Weighted>
-8.9904

> <Gold.Goldscore.External.Vdw.Weighted>
-13.0862

> <Gold.Goldscore.Internal.HBond.Weighted>
0.0000

> <Gold.Goldscore.External.HBond.Weighted>
0.0000

> <Gold.Goldscore.Internal.Correction.Weighted>
-23.1143

> <Gold.Protein.RotatedTorsions>
[ 5077 5068 5067 5065 ] final  165.57 input  179.94 | X-H torsion
[ 5157 5152 5151 5148 ] final -125.47 input -179.92 | X-H torsion
[ 5185 5176 5175 5173 ] final  -67.30 input -179.99 | X-H torsion
[ 5712 5703 5702 5700 ] final  112.21 input  180.00 | X-H torsion
[ 8036 8031 8030 8027 ] final -138.79 input -179.94 | X-H torsion
[ 2749 2745 2743 2740 ] final  109.37 input  -60.05 | X-H torsion
[ 1366 1361 1360 1357 ] final  -85.41 input  -60.09 | X-H torsion
[ 2556 2551 2550 2547 ] final  -77.38 input   59.97 | X-H torsion

> <Gold.Protein.ActiveResidues>
 PRO86   VAL89   HIS90   LEU93   THR94   ILE112  MET113  TYR115  VAL116  LEU117 
 THR118  SER119  ARG120  SER121  LEU123  ILE124  GLN192  SER194  PHE198  PHE201 
 ALA202  GLN203  PHE205  THR206  PHE209  PHE210  VAL228  ILE341  ILE343  VAL344 
 ILE345  GLU346  ASP347  TYR348  VAL349  GLN350  HIS351  LEU352  SER353  GLY354 
 TYR355  PHE357  LEU359  LYS360  GLU380  PHE381  ASN382  THR383  LEU384  TYR385 
 HIS386  TRP387  LEU390  VAL434  LEU507  ARG513  ALA516  ILE517  PHE518  GLY519 
 GLU520  THR521  MET522  VAL523  GLU524  VAL525  GLY526  ALA527  PRO528  PHE529 
 SER530  LEU531  LYS532  GLY533  LEU534  MET535  COH609 

> <Gold.Protein.RotatedAtoms>
   18.1443    7.6069    3.3130 H   0  0  0  0  0  0  0  0  0  0  0  0  # atno 1366 bound_to 1361
    4.6437   -8.8849    7.8644 H   0  0  0  0  0  0  0  0  0  0  0  0  # atno 2556 bound_to 2551
   -3.5513    0.0174   -0.1923 H   0  0  0  0  0  0  0  0  0  0  0  0  # atno 2749 bound_to 2745
    1.7789   -1.4520    3.6820 H   0  0  0  0  0  0  0  0  0  0  0  0  # atno 5077 bound_to 5068
   11.6847   -1.4807    9.2772 H   0  0  0  0  0  0  0  0  0  0  0  0  # atno 5157 bound_to 5152
   16.6003   -0.4588    4.9537 H   0  0  0  0  0  0  0  0  0  0  0  0  # atno 5185 bound_to 5176
    3.0347   -0.5180    2.4108 H   0  0  0  0  0  0  0  0  0  0  0  0  # atno 5712 bound_to 5703
    6.1698    4.1044    3.6846 H   0  0  0  0  0  0  0  0  0  0  0  0  # atno 8036 bound_to 8031
    0.4821   -2.0377    4.1685 LP  0  0  0  0  0  0  0  0  0  0  0  0  # atno 8267 bound_to 5068
    1.8722   -2.8922    4.1045 LP  0  0  0  0  0  0  0  0  0  0  0  0  # atno 8268 bound_to 5068
   13.0871   -2.0208    9.1959 LP  0  0  0  0  0  0  0  0  0  0  0  0  # atno 8279 bound_to 5152
   11.7715   -2.9831    9.2960 LP  0  0  0  0  0  0  0  0  0  0  0  0  # atno 8280 bound_to 5152
   15.4415    0.4953    5.0271 LP  0  0  0  0  0  0  0  0  0  0  0  0  # atno 8281 bound_to 5176
   15.2812   -1.0607    4.5583 LP  0  0  0  0  0  0  0  0  0  0  0  0  # atno 8282 bound_to 5176
    1.6947   -0.9786    2.9117 LP  0  0  0  0  0  0  0  0  0  0  0  0  # atno 8283 bound_to 5703
    2.0346    0.5878    2.5997 LP  0  0  0  0  0  0  0  0  0  0  0  0  # atno 8284 bound_to 5703
    4.7404    3.9770    3.2370 LP  0  0  0  0  0  0  0  0  0  0  0  0  # atno 8309 bound_to 8031
    5.4690    5.4183    3.4785 LP  0  0  0  0  0  0  0  0  0  0  0  0  # atno 8310 bound_to 8031
   -4.1840    0.1562    1.1655 LP  0  0  0  0  0  0  0  0  0  0  0  0  # atno 8323 bound_to 2745
   -2.7737   -0.6299    0.9212 LP  0  0  0  0  0  0  0  0  0  0  0  0  # atno 8324 bound_to 2745
   18.8580    6.4914    2.5986 LP  0  0  0  0  0  0  0  0  0  0  0  0  # atno 8335 bound_to 1361
   17.6347    7.3364    1.9233 LP  0  0  0  0  0  0  0  0  0  0  0  0  # atno 8336 bound_to 1361
    4.6822   -9.3812    6.4444 LP  0  0  0  0  0  0  0  0  0  0  0  0  # atno 8342 bound_to 2551
    5.2929  -10.2320    7.6973 LP  0  0  0  0  0  0  0  0  0  0  0  0  # atno 8343 bound_to 2551

