
197|LMW3_p|sdf|197|dock2
  -GOLD-   61022 3 83D 1   1.00000     0.00000

 80 83  0  0  0  0  0  0  0  0  2 V2000
    9.2828    3.2482    4.6331 O   0  0  0  0  0  0  0  0  0  0  0  0
    9.3664    2.2608    3.9063 C   0  0  0  0  0  0  0  0  0  0  0  0
   10.5550    1.3505    3.9550 C   0  0  0  0  0  0  0  0  0  0  0  0
    8.2733    1.9593    2.9140 C   0  0  0  0  0  0  0  0  0  0  0  0
   10.5523    0.1795    3.2642 C   0  0  0  0  0  0  0  0  0  0  0  0
   11.7454    1.7580    4.8145 C   0  0  1  0  0  0  0  0  0  0  0  0
    8.0500    0.4489    2.8233 C   0  0  2  0  0  0  0  0  0  0  0  0
    9.3542   -0.2933    2.3758 C   0  0  2  0  0  0  0  0  0  0  0  0
   11.7945   -0.7296    3.2687 C   0  0  0  0  0  0  0  0  0  0  0  0
   13.0911    1.2859    4.1316 C   0  0  2  0  0  0  0  0  0  0  0  0
   12.0668    3.2469    5.0387 C   0  0  0  0  0  0  0  0  0  0  0  0
   11.4565    1.1369    6.2156 C   0  0  0  0  0  0  0  0  0  0  0  0
    6.7412    0.0524    2.0417 C   0  0  2  0  0  0  0  0  0  0  0  0
    9.0983   -1.8415    2.5460 C   0  0  2  0  0  0  0  0  0  0  0  0
    9.7750    0.0805    0.9298 C   0  0  0  0  0  0  0  0  0  0  0  0
   13.0387   -0.2429    4.0409 C   0  0  0  0  0  0  0  0  0  0  0  0
   14.1664    1.8926    5.0857 C   0  0  2  0  0  0  0  0  0  0  0  0
   13.2886    1.8692    2.6961 C   0  0  0  0  0  0  0  0  0  0  0  0
   13.5531    3.2806    5.4336 C   0  0  0  0  0  0  0  0  0  0  0  0
    5.5801    0.2156    3.0383 C   0  0  0  0  0  0  0  0  0  0  0  0
    6.7397   -1.4598    1.6517 C   0  0  2  0  0  0  0  0  0  0  0  0
    6.4483    0.9229    0.7995 C   0  0  0  0  0  0  0  0  0  0  0  0
    9.7858   -2.6002    1.5467 O   0  0  0  0  0  0  0  0  0  0  0  0
    7.6281   -2.2883    2.5713 C   0  0  0  0  0  0  0  0  0  0  0  0
   15.6515    2.0166    4.6207 C   0  0  1  0  0  0  0  0  0  0  0  0
    5.5826   -0.1440    4.2059 O   0  0  0  0  0  0  0  0  0  0  0  0
    4.5132    0.8769    2.5562 O   0  5  0  0  0  0  0  0  0  0  0  0
    7.1777   -1.6808    0.3077 O   0  0  0  0  0  0  0  0  0  0  0  0
   16.5360    2.5385    5.7876 C   0  0  0  0  0  0  0  0  0  0  0  0
   16.2073    0.6866    4.1002 C   0  0  0  0  0  0  0  0  0  0  0  0
   17.5270    3.6336    5.3740 C   0  0  0  0  0  0  0  0  0  0  0  0
   18.4785    3.1326    4.3207 C   0  0  0  0  0  0  0  0  0  0  0  0
   18.7448    3.6881    3.1224 C   0  0  0  0  0  0  0  0  0  0  0  0
   18.0852    4.9252    2.5785 C   0  0  0  0  0  0  0  0  0  0  0  0
   19.7590    3.0681    2.1968 C   0  0  0  0  0  0  0  0  0  0  0  0
    8.5549    2.3341    1.9522 H   0  0  0  0  0  0  0  0  0  0  0  0
    7.3676    2.4292    3.2362 H   0  0  0  0  0  0  0  0  0  0  0  0
    7.8477    0.0911    3.8112 H   0  0  0  0  0  0  0  0  0  0  0  0
   12.0876   -0.8748    2.2500 H   0  0  0  0  0  0  0  0  0  0  0  0
   11.4818   -1.6107    3.7890 H   0  0  0  0  0  0  0  0  0  0  0  0
   11.4603    3.6480    5.8236 H   0  0  0  0  0  0  0  0  0  0  0  0
   11.8700    3.8353    4.1670 H   0  0  0  0  0  0  0  0  0  0  0  0
   10.9162    0.2213    6.0953 H   0  0  0  0  0  0  0  0  0  0  0  0
   10.8736    1.8213    6.7959 H   0  0  0  0  0  0  0  0  0  0  0  0
   12.3815    0.9420    6.7169 H   0  0  0  0  0  0  0  0  0  0  0  0
    9.4868   -2.0393    3.5232 H   0  0  0  0  0  0  0  0  0  0  0  0
    9.0666   -0.3228    0.2368 H   0  0  0  0  0  0  0  0  0  0  0  0
   10.7443   -0.3236    0.7247 H   0  0  0  0  0  0  0  0  0  0  0  0
    9.8042    1.1455    0.8308 H   0  0  0  0  0  0  0  0  0  0  0  0
   13.9166   -0.5902    3.5371 H   0  0  0  0  0  0  0  0  0  0  0  0
   12.9861   -0.6332    5.0358 H   0  0  0  0  0  0  0  0  0  0  0  0
   14.3214    1.2074    5.8928 H   0  0  0  0  0  0  0  0  0  0  0  0
   13.4256    2.9286    2.7573 H   0  0  0  0  0  0  0  0  0  0  0  0
   12.4248    1.6550    2.1021 H   0  0  0  0  0  0  0  0  0  0  0  0
   14.1507    1.4235    2.2454 H   0  0  0  0  0  0  0  0  0  0  0  0
   13.6473    3.4681    6.4829 H   0  0  0  0  0  0  0  0  0  0  0  0
   14.0637    4.0590    4.9061 H   0  0  0  0  0  0  0  0  0  0  0  0
    5.7201   -1.7690    1.7503 H   0  0  0  0  0  0  0  0  0  0  0  0
    6.3096    1.9400    1.1014 H   0  0  0  0  0  0  0  0  0  0  0  0
    5.5606    0.5696    0.3177 H   0  0  0  0  0  0  0  0  0  0  0  0
    7.2718    0.8619    0.1190 H   0  0  0  0  0  0  0  0  0  0  0  0
    9.3399   -2.4887    0.6924 H   0  0  0  0  0  0  0  0  0  0  0  0
    7.2612   -2.1981    3.5724 H   0  0  0  0  0  0  0  0  0  0  0  0
    7.5943   -3.2997    2.2239 H   0  0  0  0  0  0  0  0  0  0  0  0
   15.6739    2.7153    3.8107 H   0  0  0  0  0  0  0  0  0  0  0  0
    6.9241   -2.5743    0.0277 H   0  0  0  0  0  0  0  0  0  0  0  0
   17.0910    1.7142    6.1844 H   0  0  0  0  0  0  0  0  0  0  0  0
   15.8750    2.9734    6.5080 H   0  0  0  0  0  0  0  0  0  0  0  0
   15.8173    0.4952    3.1224 H   0  0  0  0  0  0  0  0  0  0  0  0
   15.9177   -0.1039    4.7607 H   0  0  0  0  0  0  0  0  0  0  0  0
   17.2750    0.7398    4.0543 H   0  0  0  0  0  0  0  0  0  0  0  0
   18.0864    3.9413    6.2327 H   0  0  0  0  0  0  0  0  0  0  0  0
   16.9754    4.4568    4.9704 H   0  0  0  0  0  0  0  0  0  0  0  0
   18.9861    2.2618    4.5422 H   0  0  0  0  0  0  0  0  0  0  0  0
   18.0161    5.6618    3.3515 H   0  0  0  0  0  0  0  0  0  0  0  0
   17.1036    4.6818    2.2290 H   0  0  0  0  0  0  0  0  0  0  0  0
   18.6665    5.3124    1.7679 H   0  0  0  0  0  0  0  0  0  0  0  0
   19.8723    2.0311    2.4352 H   0  0  0  0  0  0  0  0  0  0  0  0
   20.6991    3.5656    2.3131 H   0  0  0  0  0  0  0  0  0  0  0  0
   19.4258    3.1671    1.1849 H   0  0  0  0  0  0  0  0  0  0  0  0
  1  2  2  0  0  0  0
  2  3  1  0  0  0  0
  2  4  1  0  0  0  0
  3  5  2  0  0  0  0
  3  6  1  0  0  0  0
  4  7  1  0  0  0  0
  4 36  1  0  0  0  0
  4 37  1  0  0  0  0
  5  8  1  0  0  0  0
  5  9  1  0  0  0  0
  6 10  1  0  0  0  0
  6 11  1  0  0  0  0
  6 12  1  0  0  0  0
  7 13  1  0  0  0  0
  7  8  1  0  0  0  0
  7 38  1  0  0  0  0
  8 14  1  0  0  0  0
  8 15  1  0  0  0  0
  9 16  1  0  0  0  0
  9 39  1  0  0  0  0
  9 40  1  0  0  0  0
 10 17  1  0  0  0  0
 10 18  1  0  0  0  0
 10 16  1  0  0  0  0
 11 19  1  0  0  0  0
 11 41  1  0  0  0  0
 11 42  1  0  0  0  0
 12 43  1  0  0  0  0
 12 44  1  0  0  0  0
 12 45  1  0  0  0  0
 13 20  1  0  0  0  0
 13 21  1  0  0  0  0
 13 22  1  0  0  0  0
 14 23  1  0  0  0  0
 14 24  1  0  0  0  0
 14 46  1  0  0  0  0
 15 47  1  0  0  0  0
 15 48  1  0  0  0  0
 15 49  1  0  0  0  0
 16 50  1  0  0  0  0
 16 51  1  0  0  0  0
 17 25  1  0  0  0  0
 17 19  1  0  0  0  0
 17 52  1  0  0  0  0
 18 53  1  0  0  0  0
 18 54  1  0  0  0  0
 18 55  1  0  0  0  0
 19 56  1  0  0  0  0
 19 57  1  0  0  0  0
 20 26  2  0  0  0  0
 20 27  1  0  0  0  0
 21 28  1  0  0  0  0
 21 24  1  0  0  0  0
 21 58  1  0  0  0  0
 22 59  1  0  0  0  0
 22 60  1  0  0  0  0
 22 61  1  0  0  0  0
 23 62  1  0  0  0  0
 24 63  1  0  0  0  0
 24 64  1  0  0  0  0
 25 29  1  0  0  0  0
 25 30  1  0  0  0  0
 25 65  1  0  0  0  0
 28 66  1  0  0  0  0
 29 31  1  0  0  0  0
 29 67  1  0  0  0  0
 29 68  1  0  0  0  0
 30 69  1  0  0  0  0
 30 70  1  0  0  0  0
 30 71  1  0  0  0  0
 31 32  1  0  0  0  0
 31 72  1  0  0  0  0
 31 73  1  0  0  0  0
 32 33  2  0  0  0  0
 32 74  1  0  0  0  0
 33 34  1  0  0  0  0
 33 35  1  0  0  0  0
 34 75  1  0  0  0  0
 34 76  1  0  0  0  0
 34 77  1  0  0  0  0
 35 78  1  0  0  0  0
 35 79  1  0  0  0  0
 35 80  1  0  0  0  0
M  CHG  1  27  -1
M  END
>  <Code-name>
197

>  <Compound>
Fomitellic acids B

>  <Specie>
Fomitella fraxinea

>  <Reference>
ZAIDMAN et a., 2005

>  <Organism>
N/A

>  <Smiles>
C[C@H](CCC=C(C)C)[C@@H](CC1)[C@@](C)(CC2)[C@]1(C)C(C(C[C@H]1[C@@](C)([C@H](C3)O)C(O)=O)=O)=C2[C@@]1(C)[C@@H]3O

>  <MMFF94 Energy>
112.3

>  <Total Molweight>
486.690

>  <Molweight>
486.690

>  <Monoisotopic Mass>
486.334525

>  <cLogP>
5.5848

>  <cLogS>
-5.181

>  <H-Acceptors>
5

>  <H-Donors>
3

>  <Total Surface Area>
361.72

>  <Relative PSA>
0.18075

>  <Polar Surface Area>
94.83

>  <Druglikeness>
-1.7449

>  <Mutagenic>
none

>  <Tumorigenic>
none

>  <Reproductive Effective>
high

>  <Irritant>
high

>  <Nasty Functions>


>  <Shape Index>
0.45714

>  <Molecular Flexibility>
0.30202

>  <Molecular Complexity>
1.0293

>  <Fragments>
1

>  <Non-H Atoms>
35

>  <Non-C/H Atoms>
5

>  <Metal-Atoms>
0

>  <Electronegative Atoms>
5

>  <Stereo Centers>
9

>  <Rotatable Bonds>
5

>  <Rings Closures>
4

>  <Small Rings>
4

>  <Aromatic Rings>
0

>  <Aromatic Atoms>
0

>  <sp3-Atoms>
27

>  <Symmetric atoms>
1

>  <Amides>
0

>  <Amines>
0

>  <Alkyl-Amines>
0

>  <Aromatic Amines>
0

>  <Aromatic Nitrogens>
0

>  <Basic Nitrogens>
0

>  <Acidic Oxygens>
1

>  <Stereo Configuration>
this enantiomer

> <Gold.Version>
5.8.1

> <Gold.Id.Protein>
ID_2|Prot_COX2_5IKQ_Alig|mol2

> <Gold.Goldscore.Fitness>
-56.7933

> <Gold.Goldscore.Internal.Vdw>
-26.1941

> <Gold.Goldscore.Internal.Torsion>
-9.1617

> <Gold.Goldscore.External.Vdw>
-39.5398

> <Gold.Goldscore.Internal.HBond>
0.0000

> <Gold.Goldscore.External.HBond>
2.9330

> <Gold.Goldscore.Internal.Correction>
-29.9967

> <Gold.Goldscore.Hbonds>
donor molecule, donor type, donor heavy atom, donor atom, acceptor molecule, acceptor atom, score
      P1  H  5703  5712       L1    27  0.47
      P1  H  8031  8036       L1    27  0.01

> <Gold.Goldscore.Internal.Vdw.Weighted>
-26.1941

> <Gold.Goldscore.Internal.Torsion.Weighted>
-9.1617

> <Gold.Goldscore.External.Vdw.Weighted>
-54.3673

> <Gold.Goldscore.Internal.HBond.Weighted>
0.0000

> <Gold.Goldscore.External.HBond.Weighted>
2.9330

> <Gold.Goldscore.Internal.Correction.Weighted>
-29.9967

> <Gold.Protein.RotatedTorsions>
[ 5077 5068 5067 5065 ] final -164.44 input  179.94 | X-H torsion
[ 5157 5152 5151 5148 ] final  158.05 input -179.92 | X-H torsion
[ 5185 5176 5175 5173 ] final    0.98 input -179.99 | X-H torsion
[ 5712 5703 5702 5700 ] final  147.76 input  180.00 | X-H torsion
[ 8036 8031 8030 8027 ] final  135.11 input -179.94 | X-H torsion
[ 2749 2745 2743 2740 ] final  158.37 input  -60.05 | X-H torsion
[ 1366 1361 1360 1357 ] final  -61.00 input  -60.09 | X-H torsion
[ 2556 2551 2550 2547 ] final  -37.06 input   59.97 | X-H torsion

> <Gold.Protein.ActiveResidues>
 PRO86   VAL89   HIS90   LEU93   THR94   ILE112  MET113  TYR115  VAL116  LEU117 
 THR118  SER119  ARG120  SER121  LEU123  ILE124  GLN192  SER194  PHE198  PHE201 
 ALA202  GLN203  PHE205  THR206  PHE209  PHE210  VAL228  ILE341  ILE343  VAL344 
 ILE345  GLU346  ASP347  TYR348  VAL349  GLN350  HIS351  LEU352  SER353  GLY354 
 TYR355  PHE357  LEU359  LYS360  GLU380  PHE381  ASN382  THR383  LEU384  TYR385 
 HIS386  TRP387  LEU390  VAL434  LEU507  ARG513  ALA516  ILE517  PHE518  GLY519 
 GLU520  THR521  MET522  VAL523  GLU524  VAL525  GLY526  ALA527  PRO528  PHE529 
 SER530  LEU531  LYS532  GLY533  LEU534  MET535  COH609 

> <Gold.Protein.RotatedAtoms>
   17.9070    7.7389    3.1182 H   0  0  0  0  0  0  0  0  0  0  0  0  # atno 1366 bound_to 1361
    4.8801   -9.2910    8.1398 H   0  0  0  0  0  0  0  0  0  0  0  0  # atno 2556 bound_to 2551
   -3.0163   -0.3163   -0.0147 H   0  0  0  0  0  0  0  0  0  0  0  0  # atno 2749 bound_to 2745
    2.0652   -1.7420    3.7081 H   0  0  0  0  0  0  0  0  0  0  0  0  # atno 5077 bound_to 5068
   12.6593   -1.5171    9.1939 H   0  0  0  0  0  0  0  0  0  0  0  0  # atno 5157 bound_to 5152
   16.0385   -1.0917    4.6965 H   0  0  0  0  0  0  0  0  0  0  0  0  # atno 5185 bound_to 5176
    2.9924   -0.0416    2.3585 H   0  0  0  0  0  0  0  0  0  0  0  0  # atno 5712 bound_to 5703
    5.2066    3.7555    3.3537 H   0  0  0  0  0  0  0  0  0  0  0  0  # atno 8036 bound_to 8031
    0.5947   -1.5984    3.9880 LP  0  0  0  0  0  0  0  0  0  0  0  0  # atno 8267 bound_to 5068
    1.4167   -2.9842    4.2538 LP  0  0  0  0  0  0  0  0  0  0  0  0  # atno 8268 bound_to 5068
   12.4657   -3.0090    9.2368 LP  0  0  0  0  0  0  0  0  0  0  0  0  # atno 8279 bound_to 5152
   11.2272   -1.9513    9.3547 LP  0  0  0  0  0  0  0  0  0  0  0  0  # atno 8280 bound_to 5152
   16.4769    0.2863    5.1056 LP  0  0  0  0  0  0  0  0  0  0  0  0  # atno 8281 bound_to 5176
   14.9203   -0.0918    4.7886 LP  0  0  0  0  0  0  0  0  0  0  0  0  # atno 8282 bound_to 5176
    2.1969   -1.2378    2.8001 LP  0  0  0  0  0  0  0  0  0  0  0  0  # atno 8283 bound_to 5703
    1.5832    0.2753    2.7740 LP  0  0  0  0  0  0  0  0  0  0  0  0  # atno 8284 bound_to 5703
    4.9792    5.2409    3.3102 LP  0  0  0  0  0  0  0  0  0  0  0  0  # atno 8309 bound_to 8031
    6.3857    4.5730    3.8023 LP  0  0  0  0  0  0  0  0  0  0  0  0  # atno 8310 bound_to 8031
   -4.3078    0.3268    0.4119 LP  0  0  0  0  0  0  0  0  0  0  0  0  # atno 8323 bound_to 2745
   -3.2907   -0.4008    1.4621 LP  0  0  0  0  0  0  0  0  0  0  0  0  # atno 8324 bound_to 2745
   18.9102    6.6273    2.9701 LP  0  0  0  0  0  0  0  0  0  0  0  0  # atno 8335 bound_to 1361
   17.8665    7.0427    1.7849 LP  0  0  0  0  0  0  0  0  0  0  0  0  # atno 8336 bound_to 1361
    4.4862   -8.8460    6.7574 LP  0  0  0  0  0  0  0  0  0  0  0  0  # atno 8342 bound_to 2551
    5.2061  -10.2813    7.0547 LP  0  0  0  0  0  0  0  0  0  0  0  0  # atno 8343 bound_to 2551

