
001|LMW3_p|sdf|1|dock1
  -GOLD-   6 62214553D 1   1.00000     0.00000

 73 77  0  0  0  0  0  0  0  0  1 V2000
    7.8029    2.3120    2.8438 O   0  0  0  0  0  0  0  0  0  0  0  0
    6.3699    2.7119    2.6802 O   0  0  0  0  0  0  0  0  0  0  0  0
    7.9866    0.8823    2.6563 C   0  0  1  0  0  0  0  0  0  0  0  0
    5.5213    1.5411    2.4935 C   0  0  1  0  0  0  0  0  0  0  0  0
    7.1956    0.2021    3.7724 C   0  0  0  0  0  0  0  0  0  0  0  0
    7.3407    0.5433    1.3194 C   0  0  0  0  0  0  0  0  0  0  0  0
    9.5038    0.5776    2.6895 C   0  0  2  0  0  0  0  0  0  0  0  0
    6.0464    0.8913    1.2274 C   0  0  0  0  0  0  0  0  0  0  0  0
    5.7031    0.6031    3.7428 C   0  0  1  0  0  0  0  0  0  0  0  0
    4.0852    2.0597    2.3465 C   0  0  0  0  0  0  0  0  0  0  0  0
    7.7386   -0.6800    4.6318 C   0  0  0  0  0  0  0  0  0  0  0  0
    9.8825   -0.8328    3.2309 C   0  0  2  0  0  0  0  0  0  0  0  0
   10.3254    1.5190    3.5798 C   0  0  0  0  0  0  0  0  0  0  0  0
    5.3039    1.3468    5.0481 C   0  0  0  0  0  0  0  0  0  0  0  0
    4.8565   -0.6886    3.5948 C   0  0  0  0  0  0  0  0  0  0  0  0
    3.4570    2.4901    3.6810 C   0  0  2  0  0  0  0  0  0  0  0  0
    9.1751   -1.1115    4.5846 C   0  0  0  0  0  0  0  0  0  0  0  0
   11.4329   -0.6864    3.3921 C   0  0  1  0  0  0  0  0  0  0  0  0
    9.5034   -1.9146    2.2021 C   0  0  0  0  0  0  0  0  0  0  0  0
   11.6197    0.7694    3.8833 C   0  0  0  0  0  0  0  0  0  0  0  0
    4.4428    2.6012    4.8405 C   0  0  0  0  0  0  0  0  0  0  0  0
    2.4385    1.5495    4.0283 O   0  0  0  0  0  0  0  0  0  0  0  0
   12.1947   -1.6950    4.2975 C   0  0  1  0  0  0  0  0  0  0  0  0
   12.3715   -3.0502    3.6564 C   0  0  0  0  0  0  0  0  0  0  0  0
   13.5921   -1.1697    4.6628 C   0  0  0  0  0  0  0  0  0  0  0  0
   11.9802   -4.2025    4.2261 C   0  0  0  0  0  0  0  0  0  0  0  0
   12.1566   -5.5639    3.5873 C   0  0  2  0  0  0  0  0  0  0  0  0
   10.8463   -6.0401    2.8995 C   0  0  0  0  0  0  0  0  0  0  0  0
   12.7042   -6.5407    4.6331 C   0  0  0  0  0  0  0  0  0  0  0  0
   10.9259   -7.5187    2.5024 C   0  0  0  0  0  0  0  0  0  0  0  0
    9.5769   -5.8022    3.7250 C   0  0  0  0  0  0  0  0  0  0  0  0
    7.8535    0.0854    0.5499 H   0  0  0  0  0  0  0  0  0  0  0  0
    9.7348    0.6866    1.6505 H   0  0  0  0  0  0  0  0  0  0  0  0
    5.4709    0.7335    0.3854 H   0  0  0  0  0  0  0  0  0  0  0  0
    3.4845    1.2819    1.9231 H   0  0  0  0  0  0  0  0  0  0  0  0
    4.1226    2.9256    1.7190 H   0  0  0  0  0  0  0  0  0  0  0  0
    7.1331   -1.0823    5.3643 H   0  0  0  0  0  0  0  0  0  0  0  0
    9.7967    1.7333    4.4850 H   0  0  0  0  0  0  0  0  0  0  0  0
   10.5134    2.4559    3.0985 H   0  0  0  0  0  0  0  0  0  0  0  0
    6.2015    1.6395    5.5515 H   0  0  0  0  0  0  0  0  0  0  0  0
    4.7056    0.6622    5.6122 H   0  0  0  0  0  0  0  0  0  0  0  0
    3.8549   -0.4293    3.3223 H   0  0  0  0  0  0  0  0  0  0  0  0
    4.8476   -1.2177    4.5249 H   0  0  0  0  0  0  0  0  0  0  0  0
    5.2833   -1.3097    2.8352 H   0  0  0  0  0  0  0  0  0  0  0  0
    3.0676    3.4749    3.5283 H   0  0  0  0  0  0  0  0  0  0  0  0
    9.2151   -2.1640    4.7731 H   0  0  0  0  0  0  0  0  0  0  0  0
    9.6920   -0.5365    5.3243 H   0  0  0  0  0  0  0  0  0  0  0  0
   11.8821   -0.9210    2.4497 H   0  0  0  0  0  0  0  0  0  0  0  0
    9.9006   -1.6509    1.2442 H   0  0  0  0  0  0  0  0  0  0  0  0
    8.4378   -1.9883    2.1383 H   0  0  0  0  0  0  0  0  0  0  0  0
    9.9083   -2.8563    2.5091 H   0  0  0  0  0  0  0  0  0  0  0  0
   11.8106    0.7793    4.9360 H   0  0  0  0  0  0  0  0  0  0  0  0
   12.4500    1.2319    3.3918 H   0  0  0  0  0  0  0  0  0  0  0  0
    5.0936    3.4290    4.6511 H   0  0  0  0  0  0  0  0  0  0  0  0
    3.8623    2.7299    5.7301 H   0  0  0  0  0  0  0  0  0  0  0  0
    1.7053    1.6191    3.3970 H   0  0  0  0  0  0  0  0  0  0  0  0
   11.5858   -1.8004    5.1710 H   0  0  0  0  0  0  0  0  0  0  0  0
   12.8185   -3.0942    2.7273 H   0  0  0  0  0  0  0  0  0  0  0  0
   14.0303   -0.6977    3.8083 H   0  0  0  0  0  0  0  0  0  0  0  0
   14.2095   -1.9857    4.9752 H   0  0  0  0  0  0  0  0  0  0  0  0
   13.5093   -0.4598    5.4591 H   0  0  0  0  0  0  0  0  0  0  0  0
   11.5324   -4.1569    5.1548 H   0  0  0  0  0  0  0  0  0  0  0  0
   12.8757   -5.5105    2.7967 H   0  0  0  0  0  0  0  0  0  0  0  0
   10.7655   -5.4302    2.0240 H   0  0  0  0  0  0  0  0  0  0  0  0
   11.9014   -6.8944    5.2457 H   0  0  0  0  0  0  0  0  0  0  0  0
   13.4260   -6.0407    5.2447 H   0  0  0  0  0  0  0  0  0  0  0  0
   13.1677   -7.3690    4.1393 H   0  0  0  0  0  0  0  0  0  0  0  0
   10.0306   -7.7984    1.9876 H   0  0  0  0  0  0  0  0  0  0  0  0
   11.0340   -8.1188    3.3816 H   0  0  0  0  0  0  0  0  0  0  0  0
   11.7686   -7.6708    1.8608 H   0  0  0  0  0  0  0  0  0  0  0  0
    8.7161   -5.9589    3.1090 H   0  0  0  0  0  0  0  0  0  0  0  0
    9.5739   -4.7974    4.0932 H   0  0  0  0  0  0  0  0  0  0  0  0
    9.5545   -6.4841    4.5494 H   0  0  0  0  0  0  0  0  0  0  0  0
  1  2  1  0  0  0  0
  3  1  1  0  0  0  0
  3  5  1  0  0  0  0
  3  6  1  0  0  0  0
  3  7  1  0  0  0  0
  4  2  1  0  0  0  0
  4  8  1  0  0  0  0
  4  9  1  0  0  0  0
  4 10  1  0  0  0  0
  5 11  2  0  0  0  0
  5  9  1  0  0  0  0
  6  8  2  0  0  0  0
  6 32  1  0  0  0  0
  7 12  1  0  0  0  0
  7 13  1  0  0  0  0
  7 33  1  0  0  0  0
  8 34  1  0  0  0  0
  9 14  1  0  0  0  0
  9 15  1  0  0  0  0
 10 16  1  0  0  0  0
 10 35  1  0  0  0  0
 10 36  1  0  0  0  0
 11 17  1  0  0  0  0
 11 37  1  0  0  0  0
 12 18  1  0  0  0  0
 12 19  1  0  0  0  0
 12 17  1  0  0  0  0
 13 20  1  0  0  0  0
 13 38  1  0  0  0  0
 13 39  1  0  0  0  0
 14 21  1  0  0  0  0
 14 40  1  0  0  0  0
 14 41  1  0  0  0  0
 15 42  1  0  0  0  0
 15 43  1  0  0  0  0
 15 44  1  0  0  0  0
 16 22  1  0  0  0  0
 16 21  1  0  0  0  0
 16 45  1  0  0  0  0
 17 46  1  0  0  0  0
 17 47  1  0  0  0  0
 18 23  1  0  0  0  0
 18 20  1  0  0  0  0
 18 48  1  0  0  0  0
 19 49  1  0  0  0  0
 19 50  1  0  0  0  0
 19 51  1  0  0  0  0
 20 52  1  0  0  0  0
 20 53  1  0  0  0  0
 21 54  1  0  0  0  0
 21 55  1  0  0  0  0
 22 56  1  0  0  0  0
 23 24  1  0  0  0  0
 23 25  1  0  0  0  0
 23 57  1  0  0  0  0
 24 26  2  0  0  0  0
 24 58  1  0  0  0  0
 25 59  1  0  0  0  0
 25 60  1  0  0  0  0
 25 61  1  0  0  0  0
 26 27  1  0  0  0  0
 26 62  1  0  0  0  0
 27 28  1  0  0  0  0
 27 29  1  0  0  0  0
 27 63  1  0  0  0  0
 28 30  1  0  0  0  0
 28 31  1  0  0  0  0
 28 64  1  0  0  0  0
 29 65  1  0  0  0  0
 29 66  1  0  0  0  0
 29 67  1  0  0  0  0
 30 68  1  0  0  0  0
 30 69  1  0  0  0  0
 30 70  1  0  0  0  0
 31 71  1  0  0  0  0
 31 72  1  0  0  0  0
 31 73  1  0  0  0  0
M  END
>  <Code-name>
001

>  <Compound>
+E4:F38(3β,5α,8α,22E,24S)-5,8-epidioxyergosta-6,9(11),22-trien-3-ol

>  <Specie>
Morchella esculenta

>  <Reference>
LEE et al., 2018

>  <Organism>
Antitumoral Activity

>  <Smiles>
CC(C)[C@H](C)/C=C/[C@@H](C)[C@H](CC1)[C@@](C)(CC=C2[C@@]3(C)CC[C@@H](C4)O)[C@H]1[C@]21OO[C@@]34C=C1

>  <MMFF94 Energy>
170.59

>  <Total Molweight>
426.638

>  <Molweight>
426.638

>  <Monoisotopic Mass>
426.313395

>  <cLogP>
6.2814

>  <cLogS>
-5.725

>  <H-Acceptors>
3

>  <H-Donors>
1

>  <Total Surface Area>
322.82

>  <Relative PSA>
0.10253

>  <Polar Surface Area>
38.69

>  <Druglikeness>
-2.0469

>  <Mutagenic>
none

>  <Tumorigenic>
high

>  <Reproductive Effective>
none

>  <Irritant>
none

>  <Nasty Functions>
peroxo

>  <Shape Index>
0.51613

>  <Molecular Flexibility>
0.34366

>  <Molecular Complexity>
1.0084

>  <Fragments>
1

>  <Non-H Atoms>
31

>  <Non-C/H Atoms>
3

>  <Metal-Atoms>
0

>  <Electronegative Atoms>
3

>  <Stereo Centers>
9

>  <Rotatable Bonds>
4

>  <Rings Closures>
5

>  <Small Rings>
6

>  <Aromatic Rings>
0

>  <Aromatic Atoms>
0

>  <sp3-Atoms>
25

>  <Symmetric atoms>
1

>  <Amides>
0

>  <Amines>
0

>  <Alkyl-Amines>
0

>  <Aromatic Amines>
0

>  <Aromatic Nitrogens>
0

>  <Basic Nitrogens>
0

>  <Acidic Oxygens>
0

>  <Stereo Configuration>
this enantiomer

> <Gold.Version>
5.8.1

> <Gold.Id.Protein>
ID_2|Prot_COX2_5IKQ_Alig|mol2

> <Gold.Goldscore.Fitness>
-10.6548

> <Gold.Goldscore.Internal.Vdw>
-9.7573

> <Gold.Goldscore.Internal.Torsion>
-3.7415

> <Gold.Goldscore.External.Vdw>
-4.3993

> <Gold.Goldscore.Internal.HBond>
0.0000

> <Gold.Goldscore.External.HBond>
0.0000

> <Gold.Goldscore.Internal.Correction>
-8.8930

> <Gold.Goldscore.Internal.Vdw.Weighted>
-9.7573

> <Gold.Goldscore.Internal.Torsion.Weighted>
-3.7415

> <Gold.Goldscore.External.Vdw.Weighted>
-6.0491

> <Gold.Goldscore.Internal.HBond.Weighted>
0.0000

> <Gold.Goldscore.External.HBond.Weighted>
0.0000

> <Gold.Goldscore.Internal.Correction.Weighted>
-8.8930

> <Gold.Protein.RotatedTorsions>
[ 5077 5068 5067 5065 ] final -167.76 input  179.94 | X-H torsion
[ 5157 5152 5151 5148 ] final   75.12 input -179.92 | X-H torsion
[ 5185 5176 5175 5173 ] final  -51.68 input -179.99 | X-H torsion
[ 5712 5703 5702 5700 ] final  -21.73 input  180.00 | X-H torsion
[ 8036 8031 8030 8027 ] final  -23.03 input -179.94 | X-H torsion
[ 2749 2745 2743 2740 ] final -175.62 input  -60.05 | X-H torsion
[ 1366 1361 1360 1357 ] final  145.88 input  -60.09 | X-H torsion
[ 2556 2551 2550 2547 ] final   67.76 input   59.97 | X-H torsion

> <Gold.Protein.ActiveResidues>
 PRO86   VAL89   HIS90   LEU93   THR94   ILE112  MET113  TYR115  VAL116  LEU117 
 THR118  SER119  ARG120  SER121  LEU123  ILE124  GLN192  SER194  PHE198  PHE201 
 ALA202  GLN203  PHE205  THR206  PHE209  PHE210  VAL228  ILE341  ILE343  VAL344 
 ILE345  GLU346  ASP347  TYR348  VAL349  GLN350  HIS351  LEU352  SER353  GLY354 
 TYR355  PHE357  LEU359  LYS360  GLU380  PHE381  ASN382  THR383  LEU384  TYR385 
 HIS386  TRP387  LEU390  VAL434  LEU507  ARG513  ALA516  ILE517  PHE518  GLY519 
 GLU520  THR521  MET522  VAL523  GLU524  VAL525  GLY526  ALA527  PRO528  PHE529 
 SER530  LEU531  LYS532  GLY533  LEU534  MET535  COH609 

> <Gold.Protein.RotatedAtoms>
   18.7401    6.6140    2.4826 H   0  0  0  0  0  0  0  0  0  0  0  0  # atno 1366 bound_to 1361
    5.1589  -10.1914    7.3149 H   0  0  0  0  0  0  0  0  0  0  0  0  # atno 2556 bound_to 2551
   -2.8488   -0.4506    0.2687 H   0  0  0  0  0  0  0  0  0  0  0  0  # atno 2749 bound_to 2745
    2.0411   -1.7038    3.7011 H   0  0  0  0  0  0  0  0  0  0  0  0  # atno 5077 bound_to 5068
   12.8063   -2.5536    9.1690 H   0  0  0  0  0  0  0  0  0  0  0  0  # atno 5157 bound_to 5152
   16.5507   -0.6573    4.8900 H   0  0  0  0  0  0  0  0  0  0  0  0  # atno 5185 bound_to 5176
    1.6648   -0.7269    2.8394 H   0  0  0  0  0  0  0  0  0  0  0  0  # atno 5712 bound_to 5703
    5.5444    5.2629    3.4594 H   0  0  0  0  0  0  0  0  0  0  0  0  # atno 8036 bound_to 8031
    0.5706   -1.6425    4.0094 LP  0  0  0  0  0  0  0  0  0  0  0  0  # atno 8267 bound_to 5068
    1.4696   -2.9859    4.2407 LP  0  0  0  0  0  0  0  0  0  0  0  0  # atno 8268 bound_to 5068
   11.3111   -2.5427    9.3404 LP  0  0  0  0  0  0  0  0  0  0  0  0  # atno 8279 bound_to 5152
   12.2059   -1.1780    9.2809 LP  0  0  0  0  0  0  0  0  0  0  0  0  # atno 8280 bound_to 5152
   15.6854    0.5571    5.0775 LP  0  0  0  0  0  0  0  0  0  0  0  0  # atno 8281 bound_to 5176
   15.0968   -0.8842    4.5844 LP  0  0  0  0  0  0  0  0  0  0  0  0  # atno 8282 bound_to 5176
    2.2533    0.6212    2.5312 LP  0  0  0  0  0  0  0  0  0  0  0  0  # atno 8283 bound_to 5703
    3.1201   -0.7612    2.4657 LP  0  0  0  0  0  0  0  0  0  0  0  0  # atno 8284 bound_to 5703
    6.2507    3.9703    3.7601 LP  0  0  0  0  0  0  0  0  0  0  0  0  # atno 8309 bound_to 8031
    4.7090    4.0351    3.2257 LP  0  0  0  0  0  0  0  0  0  0  0  0  # atno 8310 bound_to 8031
   -4.1407    0.2806    0.0241 LP  0  0  0  0  0  0  0  0  0  0  0  0  # atno 8323 bound_to 2745
   -3.6585   -0.1938    1.5104 LP  0  0  0  0  0  0  0  0  0  0  0  0  # atno 8324 bound_to 2745
   17.5739    7.4378    2.0081 LP  0  0  0  0  0  0  0  0  0  0  0  0  # atno 8335 bound_to 1361
   18.2062    7.5779    3.5072 LP  0  0  0  0  0  0  0  0  0  0  0  0  # atno 8336 bound_to 1361
    4.8176   -9.0266    8.2042 LP  0  0  0  0  0  0  0  0  0  0  0  0  # atno 8342 bound_to 2551
    4.5412   -9.0235    6.5948 LP  0  0  0  0  0  0  0  0  0  0  0  0  # atno 8343 bound_to 2551

