
019|LMW3_p|sdf|19|dock1
  -GOLD-   6 722 3573D 1   1.00000     0.00000

 70 74  0  0  0  0  0  0  0  0  1 V2000
    8.0068   -1.8381    2.7047 O   0  0  0  0  0  0  0  0  0  0  0  0
    8.2079   -0.6000    2.0025 C   0  0  2  0  0  0  0  0  0  0  0  0
    9.3548   -1.5171    2.3326 C   0  0  1  0  0  0  0  0  0  0  0  0
    8.1018    0.6586    2.8442 C   0  0  1  0  0  0  0  0  0  0  0  0
    7.6366   -0.5772    0.6152 C   0  0  0  0  0  0  0  0  0  0  0  0
   10.2342   -1.1602    3.4859 C   0  0  0  0  0  0  0  0  0  0  0  0
    7.6439    0.3304    4.1613 O   0  0  0  0  0  0  0  0  0  0  0  0
    9.5154    1.3038    2.9519 C   0  0  2  0  0  0  0  0  0  0  0  0
    7.0635    1.6257    2.2363 C   0  0  0  0  0  0  0  0  0  0  0  0
    6.1786   -0.0974    0.6041 C   0  0  2  0  0  0  0  0  0  0  0  0
   10.6352    0.3310    3.4827 C   0  0  1  0  0  0  0  0  0  0  0  0
    9.4968    2.6436    3.7192 C   0  0  0  0  0  0  0  0  0  0  0  0
    5.8336    0.8614    1.7497 C   0  0  0  0  0  0  0  0  0  0  0  0
    5.3052   -1.2238    0.6510 O   0  0  0  0  0  0  0  0  0  0  0  0
   11.1566    0.7739    4.8725 C   0  0  2  0  0  0  0  0  0  0  0  0
   10.9123    3.1623    3.9530 C   0  0  0  0  0  0  0  0  0  0  0  0
   11.7129    2.2136    4.8591 C   0  0  1  0  0  0  0  0  0  0  0  0
   12.3461   -0.0277    5.4115 C   0  0  0  0  0  0  0  0  0  0  0  0
   11.6539    2.6999    6.2056 O   0  0  0  0  0  0  0  0  0  0  0  0
   13.1916    2.0517    4.4147 C   0  0  2  0  0  0  0  0  0  0  0  0
   13.5874    0.6137    4.8059 C   0  0  0  0  0  0  0  0  0  0  0  0
   14.1632    3.1010    4.9775 C   0  0  2  0  0  0  0  0  0  0  0  0
   13.9023    4.3662    4.3742 O   0  0  0  0  0  0  0  0  0  0  0  0
   15.5993    2.7626    4.6869 C   0  0  0  0  0  0  0  0  0  0  0  0
   16.5987    3.6601    4.6666 C   0  0  0  0  0  0  0  0  0  0  0  0
   18.0426    3.3089    4.3736 C   0  0  1  0  0  0  0  0  0  0  0  0
   18.6908    4.3408    3.4076 C   0  0  0  0  0  0  0  0  0  0  0  0
   18.7863    3.2045    5.7103 C   0  0  0  0  0  0  0  0  0  0  0  0
   17.7566    4.6886    2.2394 C   0  0  0  0  0  0  0  0  0  0  0  0
   20.0243    3.8423    2.8379 C   0  0  0  0  0  0  0  0  0  0  0  0
   10.1420   -1.9589    1.7581 H   0  0  0  0  0  0  0  0  0  0  0  0
    7.6786   -1.5656    0.2076 H   0  0  0  0  0  0  0  0  0  0  0  0
    8.2151    0.1067    0.0298 H   0  0  0  0  0  0  0  0  0  0  0  0
   11.1225   -1.7547    3.4373 H   0  0  0  0  0  0  0  0  0  0  0  0
    9.6848   -1.3478    4.3847 H   0  0  0  0  0  0  0  0  0  0  0  0
    6.8333   -0.1986    4.0992 H   0  0  0  0  0  0  0  0  0  0  0  0
    9.7914    1.5207    1.9410 H   0  0  0  0  0  0  0  0  0  0  0  0
    7.5058    2.1419    1.4100 H   0  0  0  0  0  0  0  0  0  0  0  0
    6.7598    2.3223    2.9896 H   0  0  0  0  0  0  0  0  0  0  0  0
    6.0489    0.4529   -0.3043 H   0  0  0  0  0  0  0  0  0  0  0  0
   11.4334    0.4095    2.7745 H   0  0  0  0  0  0  0  0  0  0  0  0
    9.0174    2.4982    4.6646 H   0  0  0  0  0  0  0  0  0  0  0  0
    8.9636    3.3632    3.1338 H   0  0  0  0  0  0  0  0  0  0  0  0
    5.1025    1.5633    1.4063 H   0  0  0  0  0  0  0  0  0  0  0  0
    5.4555    0.2828    2.5666 H   0  0  0  0  0  0  0  0  0  0  0  0
    4.3871   -0.9251    0.5577 H   0  0  0  0  0  0  0  0  0  0  0  0
   10.2839    0.6389    5.4769 H   0  0  0  0  0  0  0  0  0  0  0  0
   10.8584    4.1248    4.4174 H   0  0  0  0  0  0  0  0  0  0  0  0
   11.4091    3.2252    3.0075 H   0  0  0  0  0  0  0  0  0  0  0  0
   12.2718   -1.0520    5.1112 H   0  0  0  0  0  0  0  0  0  0  0  0
   12.3778   -0.0141    6.4809 H   0  0  0  0  0  0  0  0  0  0  0  0
   12.1471    2.1009    6.7877 H   0  0  0  0  0  0  0  0  0  0  0  0
   13.2656    2.2210    3.3608 H   0  0  0  0  0  0  0  0  0  0  0  0
   13.9002    0.0681    3.9402 H   0  0  0  0  0  0  0  0  0  0  0  0
   14.4014    0.6121    5.5004 H   0  0  0  0  0  0  0  0  0  0  0  0
   14.0127    3.1229    6.0366 H   0  0  0  0  0  0  0  0  0  0  0  0
   13.0610    4.7158    4.7072 H   0  0  0  0  0  0  0  0  0  0  0  0
   15.8322    1.7767    4.4901 H   0  0  0  0  0  0  0  0  0  0  0  0
   16.3691    4.6470    4.8623 H   0  0  0  0  0  0  0  0  0  0  0  0
   18.1012    2.3676    3.8682 H   0  0  0  0  0  0  0  0  0  0  0  0
   18.8696    5.2170    3.9951 H   0  0  0  0  0  0  0  0  0  0  0  0
   18.2017    2.6320    6.3998 H   0  0  0  0  0  0  0  0  0  0  0  0
   18.9463    4.1853    6.1070 H   0  0  0  0  0  0  0  0  0  0  0  0
   19.7296    2.7234    5.5570 H   0  0  0  0  0  0  0  0  0  0  0  0
   17.4725    3.7912    1.7306 H   0  0  0  0  0  0  0  0  0  0  0  0
   18.2642    5.3392    1.5584 H   0  0  0  0  0  0  0  0  0  0  0  0
   16.8823    5.1776    2.6153 H   0  0  0  0  0  0  0  0  0  0  0  0
   19.8585    2.9508    2.2698 H   0  0  0  0  0  0  0  0  0  0  0  0
   20.6994    3.6329    3.6412 H   0  0  0  0  0  0  0  0  0  0  0  0
   20.4455    4.5952    2.2050 H   0  0  0  0  0  0  0  0  0  0  0  0
  1  3  1  0  0  0  0
  2  1  1  0  0  0  0
  2  4  1  0  0  0  0
  2  5  1  0  0  0  0
  2  3  1  0  0  0  0
  3  6  1  0  0  0  0
  3 31  1  0  0  0  0
  4  7  1  0  0  0  0
  4  8  1  0  0  0  0
  4  9  1  0  0  0  0
  5 10  1  0  0  0  0
  5 32  1  0  0  0  0
  5 33  1  0  0  0  0
  6 11  1  0  0  0  0
  6 34  1  0  0  0  0
  6 35  1  0  0  0  0
  7 36  1  0  0  0  0
  8 12  1  0  0  0  0
  8 11  1  0  0  0  0
  8 37  1  0  0  0  0
  9 13  1  0  0  0  0
  9 38  1  0  0  0  0
  9 39  1  0  0  0  0
 10 14  1  0  0  0  0
 10 13  1  0  0  0  0
 10 40  1  0  0  0  0
 11 15  1  0  0  0  0
 11 41  1  0  0  0  0
 12 16  1  0  0  0  0
 12 42  1  0  0  0  0
 12 43  1  0  0  0  0
 13 44  1  0  0  0  0
 13 45  1  0  0  0  0
 14 46  1  0  0  0  0
 15 17  1  0  0  0  0
 15 18  1  0  0  0  0
 15 47  1  0  0  0  0
 16 17  1  0  0  0  0
 16 48  1  0  0  0  0
 16 49  1  0  0  0  0
 17 19  1  0  0  0  0
 17 20  1  0  0  0  0
 18 21  1  0  0  0  0
 18 50  1  0  0  0  0
 18 51  1  0  0  0  0
 19 52  1  0  0  0  0
 20 22  1  0  0  0  0
 20 21  1  0  0  0  0
 20 53  1  0  0  0  0
 21 54  1  0  0  0  0
 21 55  1  0  0  0  0
 22 23  1  0  0  0  0
 22 24  1  0  0  0  0
 22 56  1  0  0  0  0
 23 57  1  0  0  0  0
 24 25  2  0  0  0  0
 24 58  1  0  0  0  0
 25 26  1  0  0  0  0
 25 59  1  0  0  0  0
 26 27  1  0  0  0  0
 26 28  1  0  0  0  0
 26 60  1  0  0  0  0
 27 29  1  0  0  0  0
 27 30  1  0  0  0  0
 27 61  1  0  0  0  0
 28 62  1  0  0  0  0
 28 63  1  0  0  0  0
 28 64  1  0  0  0  0
 29 65  1  0  0  0  0
 29 66  1  0  0  0  0
 29 67  1  0  0  0  0
 30 68  1  0  0  0  0
 30 69  1  0  0  0  0
 30 70  1  0  0  0  0
M  END
>  <Code-name>
019

>  <Compound>
5α,8α-epidioxy-24(R)-methylcholesta-6,22-dien-β-ol

>  <Specie>
Cordyceps sinensis

>  <Reference>
BOK et al., 2001

>  <Organism>
N/A

>  <Smiles>
CC(C)[C@@H](C)/C=C/[C@H]([C@@H](CC[C@@H]1[C@@H](C[C@@H]2O[C@]22C[C@H](CC3)O)[C@H](CC4)[C@]23O)[C@]14O)O

>  <MMFF94 Energy>
91.526

>  <Total Molweight>
420.588

>  <Molweight>
420.588

>  <Monoisotopic Mass>
420.287575

>  <cLogP>
2.5821

>  <cLogS>
-4.254

>  <H-Acceptors>
5

>  <H-Donors>
4

>  <Total Surface Area>
306.14

>  <Relative PSA>
0.22882

>  <Polar Surface Area>
93.45

>  <Druglikeness>
-0.77691

>  <Mutagenic>
none

>  <Tumorigenic>
none

>  <Reproductive Effective>
none

>  <Irritant>
none

>  <Nasty Functions>
oxiran/aziridine

>  <Shape Index>
0.53333

>  <Molecular Flexibility>
0.31132

>  <Molecular Complexity>
0.99582

>  <Fragments>
1

>  <Non-H Atoms>
30

>  <Non-C/H Atoms>
5

>  <Metal-Atoms>
0

>  <Electronegative Atoms>
5

>  <Stereo Centers>
11

>  <Rotatable Bonds>
4

>  <Rings Closures>
5

>  <Small Rings>
6

>  <Aromatic Rings>
0

>  <Aromatic Atoms>
0

>  <sp3-Atoms>
28

>  <Symmetric atoms>
1

>  <Amides>
0

>  <Amines>
0

>  <Alkyl-Amines>
0

>  <Aromatic Amines>
0

>  <Aromatic Nitrogens>
0

>  <Basic Nitrogens>
0

>  <Acidic Oxygens>
0

>  <Stereo Configuration>
this enantiomer

> <Gold.Version>
5.8.1

> <Gold.Id.Protein>
ID_2|Prot_COX2_5IKQ_Alig|mol2

> <Gold.Goldscore.Fitness>
46.2404

> <Gold.Goldscore.Internal.Vdw>
-14.0439

> <Gold.Goldscore.Internal.Torsion>
-2.7446

> <Gold.Goldscore.External.Vdw>
37.4427

> <Gold.Goldscore.Internal.HBond>
0.0000

> <Gold.Goldscore.External.HBond>
0.5104

> <Gold.Goldscore.Internal.Correction>
-11.0350

> <Gold.Goldscore.Hbonds>
donor molecule, donor type, donor heavy atom, donor atom, acceptor molecule, acceptor atom, score
      P1  H  1374  1386       L1    23  0.09

> <Gold.Goldscore.Internal.Vdw.Weighted>
-14.0439

> <Gold.Goldscore.Internal.Torsion.Weighted>
-2.7446

> <Gold.Goldscore.External.Vdw.Weighted>
51.4837

> <Gold.Goldscore.Internal.HBond.Weighted>
0.0000

> <Gold.Goldscore.External.HBond.Weighted>
0.5104

> <Gold.Goldscore.Internal.Correction.Weighted>
-11.0350

> <Gold.Protein.RotatedTorsions>
[ 5077 5068 5067 5065 ] final  165.32 input  179.94 | X-H torsion
[ 5157 5152 5151 5148 ] final -158.99 input -179.92 | X-H torsion
[ 5185 5176 5175 5173 ] final  -44.26 input -179.99 | X-H torsion
[ 5712 5703 5702 5700 ] final -179.98 input  180.00 | X-H torsion
[ 8036 8031 8030 8027 ] final -102.69 input -179.94 | X-H torsion
[ 2749 2745 2743 2740 ] final -115.72 input  -60.05 | X-H torsion
[ 1366 1361 1360 1357 ] final  -90.77 input  -60.09 | X-H torsion
[ 2556 2551 2550 2547 ] final -158.12 input   59.97 | X-H torsion

> <Gold.Protein.ActiveResidues>
 PRO86   VAL89   HIS90   LEU93   THR94   ILE112  MET113  TYR115  VAL116  LEU117 
 THR118  SER119  ARG120  SER121  LEU123  ILE124  GLN192  SER194  PHE198  PHE201 
 ALA202  GLN203  PHE205  THR206  PHE209  PHE210  VAL228  ILE341  ILE343  VAL344 
 ILE345  GLU346  ASP347  TYR348  VAL349  GLN350  HIS351  LEU352  SER353  GLY354 
 TYR355  PHE357  LEU359  LYS360  GLU380  PHE381  ASN382  THR383  LEU384  TYR385 
 HIS386  TRP387  LEU390  VAL434  LEU507  ARG513  ALA516  ILE517  PHE518  GLY519 
 GLU520  THR521  MET522  VAL523  GLU524  VAL525  GLY526  ALA527  PRO528  PHE529 
 SER530  LEU531  LYS532  GLY533  LEU534  MET535  COH609 

> <Gold.Protein.RotatedAtoms>
   18.2000    7.5669    3.3406 H   0  0  0  0  0  0  0  0  0  0  0  0  # atno 1366 bound_to 1361
    4.5116   -8.9722    6.8528 H   0  0  0  0  0  0  0  0  0  0  0  0  # atno 2556 bound_to 2551
   -2.9679   -0.4835    1.0477 H   0  0  0  0  0  0  0  0  0  0  0  0  # atno 2749 bound_to 2745
    1.7759   -1.4502    3.6821 H   0  0  0  0  0  0  0  0  0  0  0  0  # atno 5077 bound_to 5068
   12.1135   -1.3296    9.2426 H   0  0  0  0  0  0  0  0  0  0  0  0  # atno 5157 bound_to 5152
   16.5080   -0.7445    4.8592 H   0  0  0  0  0  0  0  0  0  0  0  0  # atno 5185 bound_to 5176
    2.7267    0.3052    2.3891 H   0  0  0  0  0  0  0  0  0  0  0  0  # atno 5712 bound_to 5703
    6.2510    4.5856    3.7091 H   0  0  0  0  0  0  0  0  0  0  0  0  # atno 8036 bound_to 8031
    0.4822   -2.0415    4.1698 LP  0  0  0  0  0  0  0  0  0  0  0  0  # atno 8267 bound_to 5068
    1.8756   -2.8905    4.1030 LP  0  0  0  0  0  0  0  0  0  0  0  0  # atno 8268 bound_to 5068
   12.9856   -2.5554    9.1981 LP  0  0  0  0  0  0  0  0  0  0  0  0  # atno 8279 bound_to 5152
   11.3601   -2.6292    9.3352 LP  0  0  0  0  0  0  0  0  0  0  0  0  # atno 8280 bound_to 5152
   15.8059    0.5631    5.0953 LP  0  0  0  0  0  0  0  0  0  0  0  0  # atno 8281 bound_to 5176
   15.0276   -0.7855    4.6035 LP  0  0  0  0  0  0  0  0  0  0  0  0  # atno 8282 bound_to 5176
    2.6942   -1.1751    2.6463 LP  0  0  0  0  0  0  0  0  0  0  0  0  # atno 8283 bound_to 5703
    1.4047   -0.2036    2.8912 LP  0  0  0  0  0  0  0  0  0  0  0  0  # atno 8284 bound_to 5703
    5.1623    3.6006    3.3859 LP  0  0  0  0  0  0  0  0  0  0  0  0  # atno 8309 bound_to 8031
    4.9496    5.2174    3.3002 LP  0  0  0  0  0  0  0  0  0  0  0  0  # atno 8310 bound_to 8031
   -3.3734   -0.1150   -0.3535 LP  0  0  0  0  0  0  0  0  0  0  0  0  # atno 8323 bound_to 2745
   -4.2830    0.2413    0.9551 LP  0  0  0  0  0  0  0  0  0  0  0  0  # atno 8324 bound_to 2745
   18.8300    6.4772    2.5161 LP  0  0  0  0  0  0  0  0  0  0  0  0  # atno 8335 bound_to 1361
   17.5961    7.3985    1.9727 LP  0  0  0  0  0  0  0  0  0  0  0  0  # atno 8336 bound_to 1361
    5.2114  -10.2859    7.0733 LP  0  0  0  0  0  0  0  0  0  0  0  0  # atno 8342 bound_to 2551
    4.9218   -9.2229    8.2786 LP  0  0  0  0  0  0  0  0  0  0  0  0  # atno 8343 bound_to 2551

