
201|LMW3_p|sdf|201|dock17
  -GOLD-   61022 3 93D 1   1.00000     0.00000

 14 14  0  0  0  0  0  0  0  0  1 V2000
   10.7451   -5.2308    3.3315 O   0  0  0  0  0  0  0  0  0  0  0  0
   11.2993   -4.1731    3.5937 C   0  0  0  0  0  0  0  0  0  0  0  0
   10.5084   -2.8866    3.8151 C   0  0  0  0  0  0  0  0  0  0  0  0
   12.7710   -4.0953    3.7085 C   0  0  0  0  0  0  0  0  0  0  0  0
    9.2894   -2.8552    3.7404 O   0  0  0  0  0  0  0  0  0  0  0  0
   11.2814   -1.6683    4.1261 C   0  0  0  0  0  0  0  0  0  0  0  0
   13.3847   -2.9383    3.9958 C   0  0  0  0  0  0  0  0  0  0  0  0
   12.6159   -1.7266    4.2027 C   0  0  0  0  0  0  0  0  0  0  0  0
   14.7388   -2.8375    4.1077 N   0  0  0  0  0  0  0  0  0  0  0  0
   13.3362   -4.9467    3.5649 H   0  0  0  0  0  0  0  0  0  0  0  0
   10.7933   -0.7728    4.2842 H   0  0  0  0  0  0  0  0  0  0  0  0
   13.1282   -0.8580    4.4219 H   0  0  0  0  0  0  0  0  0  0  0  0
   15.3041   -3.6327    3.9761 H   0  0  0  0  0  0  0  0  0  0  0  0
   15.1520   -1.9695    4.3201 H   0  0  0  0  0  0  0  0  0  0  0  0
  1  2  2  0  0  0  0
  2  3  1  0  0  0  0
  2  4  1  0  0  0  0
  3  5  2  0  0  0  0
  3  6  1  0  0  0  0
  4  7  2  0  0  0  0
  4 10  1  0  0  0  0
  6  8  2  0  0  0  0
  6 11  1  0  0  0  0
  7  9  1  0  0  0  0
  7  8  1  0  0  0  0
  8 12  1  0  0  0  0
  9 13  1  0  0  0  0
  9 14  1  0  0  0  0
M  END
>  <Code-name>
201

>  <Compound>
490 Quinone

>  <Specie>
Agaricus bisporus

>  <Reference>
ZAIDMAN et al., 2005;
TIFFANY et al., 1978

>  <Organism>
N/A

>  <Smiles>
NC(C=CC1=O)=CC1=O

>  <MMFF94 Energy>
31.968

>  <Total Molweight>
123.111

>  <Molweight>
123.111

>  <Monoisotopic Mass>
123.032029

>  <cLogP>
-0.8132

>  <cLogS>
-1.005

>  <H-Acceptors>
3

>  <H-Donors>
1

>  <Total Surface Area>
95.23

>  <Relative PSA>
0.43421

>  <Polar Surface Area>
60.16

>  <Druglikeness>
-4.0369

>  <Mutagenic>
none

>  <Tumorigenic>
none

>  <Reproductive Effective>
none

>  <Irritant>
low

>  <Nasty Functions>


>  <Shape Index>
0.66667

>  <Molecular Flexibility>
0.19056

>  <Molecular Complexity>
0.73611

>  <Fragments>
1

>  <Non-H Atoms>
9

>  <Non-C/H Atoms>
3

>  <Metal-Atoms>
0

>  <Electronegative Atoms>
3

>  <Stereo Centers>
0

>  <Rotatable Bonds>
0

>  <Rings Closures>
1

>  <Small Rings>
1

>  <Aromatic Rings>
0

>  <Aromatic Atoms>
0

>  <sp3-Atoms>
0

>  <Symmetric atoms>
0

>  <Amides>
0

>  <Amines>
0

>  <Alkyl-Amines>
0

>  <Aromatic Amines>
0

>  <Aromatic Nitrogens>
0

>  <Basic Nitrogens>
0

>  <Acidic Oxygens>
0

>  <Stereo Configuration>


> <Gold.Version>
5.8.1

> <Gold.Id.Protein>
ID_2|Prot_COX2_5IKQ_Alig|mol2

> <Gold.Goldscore.Fitness>
30.3819

> <Gold.Goldscore.Internal.Vdw>
-0.0000

> <Gold.Goldscore.Internal.Torsion>
-0.0000

> <Gold.Goldscore.External.Vdw>
19.1868

> <Gold.Goldscore.Internal.HBond>
0.0000

> <Gold.Goldscore.External.HBond>
4.0000

> <Gold.Goldscore.Internal.Correction>
0.0000

> <Gold.Goldscore.Hbonds>
donor molecule, donor type, donor heavy atom, donor atom, acceptor molecule, acceptor atom, score
      L1  H     9    13       P1   852  1.00
      L1  H     9    14       P1  5176  1.00

> <Gold.Goldscore.Internal.Vdw.Weighted>
-0.0000

> <Gold.Goldscore.Internal.Torsion.Weighted>
-0.0000

> <Gold.Goldscore.External.Vdw.Weighted>
26.3819

> <Gold.Goldscore.Internal.HBond.Weighted>
0.0000

> <Gold.Goldscore.External.HBond.Weighted>
4.0000

> <Gold.Goldscore.Internal.Correction.Weighted>
0.0000

> <Gold.Protein.RotatedTorsions>
[ 5077 5068 5067 5065 ] final  137.43 input  179.94 | X-H torsion
[ 5157 5152 5151 5148 ] final  101.01 input -179.92 | X-H torsion
[ 5185 5176 5175 5173 ] final  -75.75 input -179.99 | X-H torsion
[ 5712 5703 5702 5700 ] final  163.42 input  180.00 | X-H torsion
[ 8036 8031 8030 8027 ] final  139.98 input -179.94 | X-H torsion
[ 2749 2745 2743 2740 ] final  119.26 input  -60.05 | X-H torsion
[ 1366 1361 1360 1357 ] final   17.24 input  -60.09 | X-H torsion
[ 2556 2551 2550 2547 ] final  -92.38 input   59.97 | X-H torsion

> <Gold.Protein.ActiveResidues>
 PRO86   VAL89   HIS90   LEU93   THR94   ILE112  MET113  TYR115  VAL116  LEU117 
 THR118  SER119  ARG120  SER121  LEU123  ILE124  GLN192  SER194  PHE198  PHE201 
 ALA202  GLN203  PHE205  THR206  PHE209  PHE210  VAL228  ILE341  ILE343  VAL344 
 ILE345  GLU346  ASP347  TYR348  VAL349  GLN350  HIS351  LEU352  SER353  GLY354 
 TYR355  PHE357  LEU359  LYS360  GLU380  PHE381  ASN382  THR383  LEU384  TYR385 
 HIS386  TRP387  LEU390  VAL434  LEU507  ARG513  ALA516  ILE517  PHE518  GLY519 
 GLU520  THR521  MET522  VAL523  GLU524  VAL525  GLY526  ALA527  PRO528  PHE529 
 SER530  LEU531  LYS532  GLY533  LEU534  MET535  COH609 

> <Gold.Protein.RotatedAtoms>
   17.6669    7.5006    2.1799 H   0  0  0  0  0  0  0  0  0  0  0  0  # atno 1366 bound_to 1361
    4.5737   -8.7983    7.6906 H   0  0  0  0  0  0  0  0  0  0  0  0  # atno 2556 bound_to 2551
   -3.4332   -0.0500   -0.2011 H   0  0  0  0  0  0  0  0  0  0  0  0  # atno 2749 bound_to 2745
    1.4182   -1.3310    3.7333 H   0  0  0  0  0  0  0  0  0  0  0  0  # atno 5077 bound_to 5068
   12.9294   -2.2214    9.1625 H   0  0  0  0  0  0  0  0  0  0  0  0  # atno 5157 bound_to 5152
   16.6032   -0.3475    4.9861 H   0  0  0  0  0  0  0  0  0  0  0  0  # atno 5185 bound_to 5176
    2.8866    0.1452    2.3641 H   0  0  0  0  0  0  0  0  0  0  0  0  # atno 5712 bound_to 5703
    5.2654    3.7307    3.3742 H   0  0  0  0  0  0  0  0  0  0  0  0  # atno 8036 bound_to 8031
    0.5999   -2.4653    4.2856 LP  0  0  0  0  0  0  0  0  0  0  0  0  # atno 8267 bound_to 5068
    2.1862   -2.6095    3.9259 LP  0  0  0  0  0  0  0  0  0  0  0  0  # atno 8268 bound_to 5068
   11.5792   -2.8686    9.3138 LP  0  0  0  0  0  0  0  0  0  0  0  0  # atno 8279 bound_to 5152
   11.7907   -1.2494    9.3153 LP  0  0  0  0  0  0  0  0  0  0  0  0  # atno 8280 bound_to 5152
   15.3205    0.4356    4.9937 LP  0  0  0  0  0  0  0  0  0  0  0  0  # atno 8281 bound_to 5176
   15.3986   -1.1348    4.5528 LP  0  0  0  0  0  0  0  0  0  0  0  0  # atno 8282 bound_to 5176
    2.4438   -1.2439    2.7288 LP  0  0  0  0  0  0  0  0  0  0  0  0  # atno 8283 bound_to 5703
    1.4633    0.0573    2.8386 LP  0  0  0  0  0  0  0  0  0  0  0  0  # atno 8284 bound_to 5703
    4.9195    5.1912    3.2899 LP  0  0  0  0  0  0  0  0  0  0  0  0  # atno 8309 bound_to 8031
    6.3749    4.6524    3.7980 LP  0  0  0  0  0  0  0  0  0  0  0  0  # atno 8310 bound_to 8031
   -4.2547    0.2148    1.0312 LP  0  0  0  0  0  0  0  0  0  0  0  0  # atno 8323 bound_to 2745
   -2.8445   -0.6078    1.0660 LP  0  0  0  0  0  0  0  0  0  0  0  0  # atno 8324 bound_to 2745
   18.3150    7.4880    3.5378 LP  0  0  0  0  0  0  0  0  0  0  0  0  # atno 8335 bound_to 1361
   18.7488    6.4671    2.3394 LP  0  0  0  0  0  0  0  0  0  0  0  0  # atno 8336 bound_to 1361
    4.7854   -9.6048    6.4380 LP  0  0  0  0  0  0  0  0  0  0  0  0  # atno 8342 bound_to 2551
    5.2735  -10.1119    7.9115 LP  0  0  0  0  0  0  0  0  0  0  0  0  # atno 8343 bound_to 2551

