
202|LMW3_p|sdf|202|dock79
  -GOLD-   61022 3123D 1   1.00000     0.00000

 14 14  0  0  0  0  0  0  0  0  1 V2000
   18.7877    4.7569    4.1786 O   0  0  0  0  0  0  0  0  0  0  0  0
   18.7046    3.5559    3.5388 C   0  0  0  0  0  0  0  0  0  0  0  0
   18.7894    3.4661    2.1511 C   0  0  0  0  0  0  0  0  0  0  0  0
   18.5315    2.4177    4.3192 C   0  0  0  0  0  0  0  0  0  0  0  0
   18.6992    2.2150    1.5362 C   0  0  0  0  0  0  0  0  0  0  0  0
   18.4415    1.1689    3.7053 C   0  0  0  0  0  0  0  0  0  0  0  0
   18.5259    1.0764    2.3201 C   0  0  0  0  0  0  0  0  0  0  0  0
   18.4333   -0.1632    1.7602 O   0  0  0  0  0  0  0  0  0  0  0  0
   18.7258    5.5536    3.6893 H   0  0  0  0  0  0  0  0  0  0  0  0
   18.9179    4.3172    1.5819 H   0  0  0  0  0  0  0  0  0  0  0  0
   18.4701    2.4969    5.3463 H   0  0  0  0  0  0  0  0  0  0  0  0
   18.7604    2.1348    0.5092 H   0  0  0  0  0  0  0  0  0  0  0  0
   18.3131    0.3183    4.2755 H   0  0  0  0  0  0  0  0  0  0  0  0
   17.9767   -0.2784    0.9500 H   0  0  0  0  0  0  0  0  0  0  0  0
  1  2  1  0  0  0  0
  1  9  1  0  0  0  0
  2  3  2  0  0  0  0
  2  4  1  0  0  0  0
  3  5  1  0  0  0  0
  3 10  1  0  0  0  0
  4  6  2  0  0  0  0
  4 11  1  0  0  0  0
  5  7  2  0  0  0  0
  5 12  1  0  0  0  0
  6  7  1  0  0  0  0
  6 13  1  0  0  0  0
  7  8  1  0  0  0  0
  8 14  1  0  0  0  0
M  END
>  <Code-name>
202

>  <Compound>
Hidroquinone

>  <Specie>
Piptoporus betulinus

>  <Reference>
ZAIDMAN et al., 2005;

>  <Organism>
N/A

>  <Smiles>
Oc(cc1)ccc1O

>  <MMFF94 Energy>
-5.7893

>  <Total Molweight>
110.112

>  <Molweight>
110.112

>  <Monoisotopic Mass>
110.036780

>  <cLogP>
0.9682

>  <cLogS>
-1.024

>  <H-Acceptors>
2

>  <H-Donors>
2

>  <Total Surface Area>
85.96

>  <Relative PSA>
0.30479

>  <Polar Surface Area>
40.46

>  <Druglikeness>
-2.2721

>  <Mutagenic>
high

>  <Tumorigenic>
high

>  <Reproductive Effective>
high

>  <Irritant>
high

>  <Nasty Functions>


>  <Shape Index>
0.75

>  <Molecular Flexibility>
0

>  <Molecular Complexity>
0.59947

>  <Fragments>
1

>  <Non-H Atoms>
8

>  <Non-C/H Atoms>
2

>  <Metal-Atoms>
0

>  <Electronegative Atoms>
2

>  <Stereo Centers>
0

>  <Rotatable Bonds>
0

>  <Rings Closures>
1

>  <Small Rings>
1

>  <Aromatic Rings>
1

>  <Aromatic Atoms>
6

>  <sp3-Atoms>
2

>  <Symmetric atoms>
5

>  <Amides>
0

>  <Amines>
0

>  <Alkyl-Amines>
0

>  <Aromatic Amines>
0

>  <Aromatic Nitrogens>
0

>  <Basic Nitrogens>
0

>  <Acidic Oxygens>
0

>  <Stereo Configuration>


> <Gold.Version>
5.8.1

> <Gold.Id.Protein>
ID_2|Prot_COX2_5IKQ_Alig|mol2

> <Gold.Goldscore.Fitness>
31.4577

> <Gold.Goldscore.Internal.Vdw>
-0.4950

> <Gold.Goldscore.Internal.Torsion>
-1.0101

> <Gold.Goldscore.External.Vdw>
18.0350

> <Gold.Goldscore.Internal.HBond>
0.0000

> <Gold.Goldscore.External.HBond>
7.2635

> <Gold.Goldscore.Internal.Correction>
-0.9012

> <Gold.Goldscore.Hbonds>
donor molecule, donor type, donor heavy atom, donor atom, acceptor molecule, acceptor atom, score
      L1  H     1     9       P1  1361  1.00
      L1  H     8    14       P1  7952  0.88

> <Gold.Goldscore.Internal.Vdw.Weighted>
-0.4950

> <Gold.Goldscore.Internal.Torsion.Weighted>
-1.0101

> <Gold.Goldscore.External.Vdw.Weighted>
24.7982

> <Gold.Goldscore.Internal.HBond.Weighted>
0.0000

> <Gold.Goldscore.External.HBond.Weighted>
7.2635

> <Gold.Goldscore.Internal.Correction.Weighted>
-0.9012

> <Gold.Protein.RotatedTorsions>
[ 5077 5068 5067 5065 ] final -112.11 input  179.94 | X-H torsion
[ 5157 5152 5151 5148 ] final   31.32 input -179.92 | X-H torsion
[ 5185 5176 5175 5173 ] final  164.98 input -179.99 | X-H torsion
[ 5712 5703 5702 5700 ] final  170.56 input  180.00 | X-H torsion
[ 8036 8031 8030 8027 ] final  144.45 input -179.94 | X-H torsion
[ 2749 2745 2743 2740 ] final   75.98 input  -60.05 | X-H torsion
[ 1366 1361 1360 1357 ] final   37.64 input  -60.09 | X-H torsion
[ 2556 2551 2550 2547 ] final  -59.86 input   59.97 | X-H torsion

> <Gold.Protein.ActiveResidues>
 PRO86   VAL89   HIS90   LEU93   THR94   ILE112  MET113  TYR115  VAL116  LEU117 
 THR118  SER119  ARG120  SER121  LEU123  ILE124  GLN192  SER194  PHE198  PHE201 
 ALA202  GLN203  PHE205  THR206  PHE209  PHE210  VAL228  ILE341  ILE343  VAL344 
 ILE345  GLU346  ASP347  TYR348  VAL349  GLN350  HIS351  LEU352  SER353  GLY354 
 TYR355  PHE357  LEU359  LYS360  GLU380  PHE381  ASN382  THR383  LEU384  TYR385 
 HIS386  TRP387  LEU390  VAL434  LEU507  ARG513  ALA516  ILE517  PHE518  GLY519 
 GLU520  THR521  MET522  VAL523  GLU524  VAL525  GLY526  ALA527  PRO528  PHE529 
 SER530  LEU531  LYS532  GLY533  LEU534  MET535  COH609 

> <Gold.Protein.RotatedAtoms>
   17.7753    7.3090    2.0069 H   0  0  0  0  0  0  0  0  0  0  0  0  # atno 1366 bound_to 1361
    4.7415   -9.0361    8.0240 H   0  0  0  0  0  0  0  0  0  0  0  0  # atno 2556 bound_to 2551
   -3.9171    0.2042    0.0009 H   0  0  0  0  0  0  0  0  0  0  0  0  # atno 2749 bound_to 2745
    2.1246   -2.4024    3.9205 H   0  0  0  0  0  0  0  0  0  0  0  0  # atno 5077 bound_to 5068
   12.3234   -2.8901    9.2059 H   0  0  0  0  0  0  0  0  0  0  0  0  # atno 5157 bound_to 5152
   15.4080    0.3004    5.0124 H   0  0  0  0  0  0  0  0  0  0  0  0  # atno 5185 bound_to 5176
    2.8231    0.2197    2.3725 H   0  0  0  0  0  0  0  0  0  0  0  0  # atno 5712 bound_to 5703
    5.3209    3.7127    3.3936 H   0  0  0  0  0  0  0  0  0  0  0  0  # atno 8036 bound_to 8031
    1.2561   -1.1987    3.6794 LP  0  0  0  0  0  0  0  0  0  0  0  0  # atno 8267 bound_to 5068
    0.6842   -2.5931    4.3080 LP  0  0  0  0  0  0  0  0  0  0  0  0  # atno 8268 bound_to 5068
   11.2541   -1.8414    9.3537 LP  0  0  0  0  0  0  0  0  0  0  0  0  # atno 8279 bound_to 5152
   12.8405   -1.4768    9.2234 LP  0  0  0  0  0  0  0  0  0  0  0  0  # atno 8280 bound_to 5152
   15.3907   -1.1305    4.5529 LP  0  0  0  0  0  0  0  0  0  0  0  0  # atno 8281 bound_to 5176
   16.7636   -0.3466    4.9620 LP  0  0  0  0  0  0  0  0  0  0  0  0  # atno 8282 bound_to 5176
    2.5542   -1.2236    2.6938 LP  0  0  0  0  0  0  0  0  0  0  0  0  # atno 8283 bound_to 5703
    1.4290   -0.0524    2.8635 LP  0  0  0  0  0  0  0  0  0  0  0  0  # atno 8284 bound_to 5703
    4.8684    5.1412    3.2726 LP  0  0  0  0  0  0  0  0  0  0  0  0  # atno 8309 bound_to 8031
    6.3593    4.7241    3.7921 LP  0  0  0  0  0  0  0  0  0  0  0  0  # atno 8310 bound_to 8031
   -3.8151   -0.0978    1.4712 LP  0  0  0  0  0  0  0  0  0  0  0  0  # atno 8323 bound_to 2745
   -2.7046   -0.5997    0.3842 LP  0  0  0  0  0  0  0  0  0  0  0  0  # atno 8324 bound_to 2745
   18.0622    7.6816    3.4362 LP  0  0  0  0  0  0  0  0  0  0  0  0  # atno 8335 bound_to 1361
   18.8720    6.5027    2.6481 LP  0  0  0  0  0  0  0  0  0  0  0  0  # atno 8336 bound_to 1361
    4.5788   -9.1275    6.5309 LP  0  0  0  0  0  0  0  0  0  0  0  0  # atno 8342 bound_to 2551
    5.2794  -10.3048    7.4197 LP  0  0  0  0  0  0  0  0  0  0  0  0  # atno 8343 bound_to 2551

