
203|LMW3_p|sdf|203|dock2
  -GOLD-   61022 3133D 1   1.00000     0.00000

 30 32  0  0  0  0  0  0  0  0  1 V2000
   13.4421   -1.3384    4.1625 O   0  0  0  0  0  0  0  0  0  0  0  0
   12.3009   -1.7922    4.1646 C   0  0  0  0  0  0  0  0  0  0  0  0
   12.0781   -3.1947    3.7769 C   0  0  0  0  0  0  0  0  0  0  0  0
   11.1036   -0.9940    4.5458 C   0  0  0  0  0  0  0  0  0  0  0  0
   10.7752   -3.6884    3.7729 C   0  0  0  0  0  0  0  0  0  0  0  0
   13.1393   -4.0336    3.4146 C   0  0  0  0  0  0  0  0  0  0  0  0
   11.1905    0.4222    4.9474 C   0  0  0  0  0  0  0  0  0  0  0  0
    9.9169   -1.6182    4.4803 C   0  0  0  0  0  0  0  0  0  0  0  0
    9.6901   -2.9229    4.1146 O   0  0  0  0  0  0  0  0  0  0  0  0
   10.5286   -5.0124    3.4096 C   0  0  0  0  0  0  0  0  0  0  0  0
   14.4446   -3.6202    3.3951 O   0  0  0  0  0  0  0  0  0  0  0  0
   12.8999   -5.3572    3.0507 C   0  0  0  0  0  0  0  0  0  0  0  0
   12.1627    0.8433    5.8676 C   0  0  0  0  0  0  0  0  0  0  0  0
   10.3036    1.3770    4.4238 C   0  0  0  0  0  0  0  0  0  0  0  0
   11.5925   -5.8350    3.0520 C   0  0  0  0  0  0  0  0  0  0  0  0
   12.2540    2.1850    6.2510 C   0  0  0  0  0  0  0  0  0  0  0  0
   10.3951    2.7180    4.8043 C   0  0  0  0  0  0  0  0  0  0  0  0
   11.3082   -7.1222    2.7037 O   0  0  0  0  0  0  0  0  0  0  0  0
   11.3685    3.1113    5.7131 C   0  0  0  0  0  0  0  0  0  0  0  0
   11.4203    4.4285    6.0583 O   0  0  0  0  0  0  0  0  0  0  0  0
    9.0868   -1.0586    4.7311 H   0  0  0  0  0  0  0  0  0  0  0  0
    9.5640   -5.3792    3.4060 H   0  0  0  0  0  0  0  0  0  0  0  0
   15.1363   -4.2522    3.3912 H   0  0  0  0  0  0  0  0  0  0  0  0
   13.6818   -5.9754    2.7837 H   0  0  0  0  0  0  0  0  0  0  0  0
   12.8188    0.1539    6.2666 H   0  0  0  0  0  0  0  0  0  0  0  0
    9.5772    1.0850    3.7514 H   0  0  0  0  0  0  0  0  0  0  0  0
   12.9731    2.4849    6.9278 H   0  0  0  0  0  0  0  0  0  0  0  0
    9.7418    3.4137    4.4114 H   0  0  0  0  0  0  0  0  0  0  0  0
   11.9986   -7.7018    2.4483 H   0  0  0  0  0  0  0  0  0  0  0  0
   12.0260    4.7181    6.7120 H   0  0  0  0  0  0  0  0  0  0  0  0
  1  2  2  0  0  0  0
  2  3  1  0  0  0  0
  2  4  1  0  0  0  0
  3  5  2  0  0  0  0
  3  6  1  0  0  0  0
  4  7  1  0  0  0  0
  4  8  2  0  0  0  0
  5  9  1  0  0  0  0
  5 10  1  0  0  0  0
  6 11  1  0  0  0  0
  6 12  2  0  0  0  0
  7 13  2  0  0  0  0
  7 14  1  0  0  0  0
  8  9  1  0  0  0  0
  8 21  1  0  0  0  0
 10 15  2  0  0  0  0
 10 22  1  0  0  0  0
 11 23  1  0  0  0  0
 12 15  1  0  0  0  0
 12 24  1  0  0  0  0
 13 16  1  0  0  0  0
 13 25  1  0  0  0  0
 14 17  2  0  0  0  0
 14 26  1  0  0  0  0
 15 18  1  0  0  0  0
 16 19  2  0  0  0  0
 16 27  1  0  0  0  0
 17 19  1  0  0  0  0
 17 28  1  0  0  0  0
 18 29  1  0  0  0  0
 19 20  1  0  0  0  0
 20 30  1  0  0  0  0
M  END
>  <Code-name>
203

>  <Compound>
Genistein

>  <Specie>
Flammulina velupites

>  <Reference>
ZAIDMAN et al., 2005

>  <Organism>
N/A

>  <Smiles>
Oc(cc1)ccc1C1=COc(cc(cc2O)O)c2C1=O

>  <MMFF94 Energy>
35.723

>  <Total Molweight>
270.239

>  <Molweight>
270.239

>  <Monoisotopic Mass>
270.052825

>  <cLogP>
1.6272

>  <cLogS>
-2.727

>  <H-Acceptors>
5

>  <H-Donors>
3

>  <Total Surface Area>
191.03

>  <Relative PSA>
0.32634

>  <Polar Surface Area>
86.99

>  <Druglikeness>
-0.093853

>  <Mutagenic>
high

>  <Tumorigenic>
high

>  <Reproductive Effective>
high

>  <Irritant>
none

>  <Nasty Functions>


>  <Shape Index>
0.6

>  <Molecular Flexibility>
0.29499

>  <Molecular Complexity>
0.80083

>  <Fragments>
1

>  <Non-H Atoms>
20

>  <Non-C/H Atoms>
5

>  <Metal-Atoms>
0

>  <Electronegative Atoms>
5

>  <Stereo Centers>
0

>  <Rotatable Bonds>
1

>  <Rings Closures>
3

>  <Small Rings>
3

>  <Aromatic Rings>
2

>  <Aromatic Atoms>
12

>  <sp3-Atoms>
4

>  <Symmetric atoms>
2

>  <Amides>
0

>  <Amines>
0

>  <Alkyl-Amines>
0

>  <Aromatic Amines>
0

>  <Aromatic Nitrogens>
0

>  <Basic Nitrogens>
0

>  <Acidic Oxygens>
0

>  <Stereo Configuration>


> <Gold.Version>
5.8.1

> <Gold.Id.Protein>
ID_2|Prot_COX2_5IKQ_Alig|mol2

> <Gold.Goldscore.Fitness>
55.9117

> <Gold.Goldscore.Internal.Vdw>
-1.3061

> <Gold.Goldscore.Internal.Torsion>
-3.4940

> <Gold.Goldscore.External.Vdw>
39.0811

> <Gold.Goldscore.Internal.HBond>
0.0000

> <Gold.Goldscore.External.HBond>
2.1845

> <Gold.Goldscore.Internal.Correction>
-4.7909

> <Gold.Goldscore.Hbonds>
donor molecule, donor type, donor heavy atom, donor atom, acceptor molecule, acceptor atom, score
      P1  H  5176  5185       L1     1  0.57
      P1  H  7855  7866       L1    18  0.03
      L1  H    11    23       P1   852  0.49

> <Gold.Goldscore.Internal.Vdw.Weighted>
-1.3061

> <Gold.Goldscore.Internal.Torsion.Weighted>
-3.4940

> <Gold.Goldscore.External.Vdw.Weighted>
53.7365

> <Gold.Goldscore.Internal.HBond.Weighted>
0.0000

> <Gold.Goldscore.External.HBond.Weighted>
2.1845

> <Gold.Goldscore.Internal.Correction.Weighted>
-4.7909

> <Gold.Protein.RotatedTorsions>
[ 5077 5068 5067 5065 ] final  129.93 input  179.94 | X-H torsion
[ 5157 5152 5151 5148 ] final  146.40 input -179.92 | X-H torsion
[ 5185 5176 5175 5173 ] final   76.98 input -179.99 | X-H torsion
[ 5712 5703 5702 5700 ] final   96.76 input  180.00 | X-H torsion
[ 8036 8031 8030 8027 ] final -125.91 input -179.94 | X-H torsion
[ 2749 2745 2743 2740 ] final  135.78 input  -60.05 | X-H torsion
[ 1366 1361 1360 1357 ] final   40.76 input  -60.09 | X-H torsion
[ 2556 2551 2550 2547 ] final   32.68 input   59.97 | X-H torsion

> <Gold.Protein.ActiveResidues>
 PRO86   VAL89   HIS90   LEU93   THR94   ILE112  MET113  TYR115  VAL116  LEU117 
 THR118  SER119  ARG120  SER121  LEU123  ILE124  GLN192  SER194  PHE198  PHE201 
 ALA202  GLN203  PHE205  THR206  PHE209  PHE210  VAL228  ILE341  ILE343  VAL344 
 ILE345  GLU346  ASP347  TYR348  VAL349  GLN350  HIS351  LEU352  SER353  GLY354 
 TYR355  PHE357  LEU359  LYS360  GLU380  PHE381  ASN382  THR383  LEU384  TYR385 
 HIS386  TRP387  LEU390  VAL434  LEU507  ARG513  ALA516  ILE517  PHE518  GLY519 
 GLU520  THR521  MET522  VAL523  GLU524  VAL525  GLY526  ALA527  PRO528  PHE529 
 SER530  LEU531  LYS532  GLY533  LEU534  MET535  COH609 

> <Gold.Protein.RotatedAtoms>
   17.7972    7.2778    1.9872 H   0  0  0  0  0  0  0  0  0  0  0  0  # atno 1366 bound_to 1361
    5.1767  -10.0618    7.7730 H   0  0  0  0  0  0  0  0  0  0  0  0  # atno 2556 bound_to 2551
   -3.2418   -0.1659   -0.1639 H   0  0  0  0  0  0  0  0  0  0  0  0  # atno 2749 bound_to 2745
    1.3181   -1.3283    3.7582 H   0  0  0  0  0  0  0  0  0  0  0  0  # atno 5077 bound_to 5068
   12.7698   -1.6329    9.1832 H   0  0  0  0  0  0  0  0  0  0  0  0  # atno 5157 bound_to 5152
   15.1461   -0.7113    4.6865 H   0  0  0  0  0  0  0  0  0  0  0  0  # atno 5185 bound_to 5176
    2.9643   -0.7122    2.4578 H   0  0  0  0  0  0  0  0  0  0  0  0  # atno 5712 bound_to 5703
    6.2317    4.2689    3.7048 H   0  0  0  0  0  0  0  0  0  0  0  0  # atno 8036 bound_to 8031
    0.6654   -2.5682    4.3042 LP  0  0  0  0  0  0  0  0  0  0  0  0  # atno 8267 bound_to 5068
    2.2406   -2.5099    3.8775 LP  0  0  0  0  0  0  0  0  0  0  0  0  # atno 8268 bound_to 5068
   12.2804   -3.0545    9.2520 LP  0  0  0  0  0  0  0  0  0  0  0  0  # atno 8279 bound_to 5152
   11.2804   -1.7674    9.3524 LP  0  0  0  0  0  0  0  0  0  0  0  0  # atno 8280 bound_to 5152
   16.6398   -0.8248    4.8079 LP  0  0  0  0  0  0  0  0  0  0  0  0  # atno 8281 bound_to 5176
   15.8290    0.5626    5.0983 LP  0  0  0  0  0  0  0  0  0  0  0  0  # atno 8282 bound_to 5176
    1.5391   -0.7791    2.9300 LP  0  0  0  0  0  0  0  0  0  0  0  0  # atno 8283 bound_to 5703
    2.2747    0.6214    2.5250 LP  0  0  0  0  0  0  0  0  0  0  0  0  # atno 8284 bound_to 5703
    4.8640    3.8109    3.2811 LP  0  0  0  0  0  0  0  0  0  0  0  0  # atno 8309 bound_to 8031
    5.2710    5.3871    3.4102 LP  0  0  0  0  0  0  0  0  0  0  0  0  # atno 8310 bound_to 8031
   -4.3228    0.2874    0.7791 LP  0  0  0  0  0  0  0  0  0  0  0  0  # atno 8323 bound_to 2745
   -3.0057   -0.5415    1.2737 LP  0  0  0  0  0  0  0  0  0  0  0  0  # atno 8324 bound_to 2745
   18.0244    7.7059    3.4117 LP  0  0  0  0  0  0  0  0  0  0  0  0  # atno 8335 bound_to 1361
   18.8836    6.5157    2.6963 LP  0  0  0  0  0  0  0  0  0  0  0  0  # atno 8336 bound_to 1361
    4.5889   -8.6774    7.8180 LP  0  0  0  0  0  0  0  0  0  0  0  0  # atno 8342 bound_to 2551
    4.7486   -9.5277    6.4330 LP  0  0  0  0  0  0  0  0  0  0  0  0  # atno 8343 bound_to 2551

