
206|LMW3_p|sdf|206|dock377
  -GOLD-   6102210 63D 1   1.00000     0.00000

 60 61  0  0  0  0  0  0  0  0  1 V2000
    6.9636    0.7816    2.9762 O   0  0  0  0  0  0  0  0  0  0  0  0
    6.9424    0.1877    1.7410 C   0  0  0  0  0  0  0  0  0  0  0  0
    5.7958    0.4169    0.9754 C   0  0  0  0  0  0  0  0  0  0  0  0
    7.9822   -0.6053    1.2435 C   0  0  0  0  0  0  0  0  0  0  0  0
    4.7924    1.1999    1.4747 O   0  0  0  0  0  0  0  0  0  0  0  0
    5.6491   -0.1384   -0.2858 C   0  0  0  0  0  0  0  0  0  0  0  0
    7.8223   -1.1722   -0.0349 C   0  0  0  0  0  0  0  0  0  0  0  0
    9.2477   -0.8930    2.0125 C   0  0  0  0  0  0  0  0  0  0  0  0
    6.6682   -0.9398   -0.7924 C   0  0  0  0  0  0  0  0  0  0  0  0
    9.3103   -2.3462    2.4882 C   0  0  0  0  0  0  0  0  0  0  0  0
   10.5356   -2.5818    3.3717 C   0  0  0  0  0  0  0  0  0  0  0  0
   10.8385   -4.0465    3.5024 C   0  0  0  0  0  0  0  0  0  0  0  0
   11.9925   -4.6024    3.9049 C   0  0  0  0  0  0  0  0  0  0  0  0
   13.2296   -3.8907    4.3740 C   0  0  0  0  0  0  0  0  0  0  0  0
   14.1329   -3.5131    3.1995 C   0  0  0  0  0  0  0  0  0  0  0  0
   15.1485   -2.4428    3.6035 C   0  0  0  0  0  0  0  0  0  0  0  0
   16.2227   -2.2612    2.5302 C   0  0  0  0  0  0  0  0  0  0  0  0
   17.2101   -1.1568    2.9135 C   0  0  0  0  0  0  0  0  0  0  0  0
   18.0150   -0.6865    1.6982 C   0  0  0  0  0  0  0  0  0  0  0  0
   19.1715    0.2498    2.0672 C   0  0  0  0  0  0  0  0  0  0  0  0
   18.7315    1.6140    2.5369 C   0  0  0  0  0  0  0  0  0  0  0  0
   18.6662    2.7039    1.6674 C   0  0  0  0  0  0  0  0  0  0  0  0
   18.3659    1.8174    3.8770 C   0  0  0  0  0  0  0  0  0  0  0  0
   19.0175    2.5588    0.3525 O   0  0  0  0  0  0  0  0  0  0  0  0
   18.2495    3.9591    2.1147 C   0  0  0  0  0  0  0  0  0  0  0  0
   17.9478    3.0763    4.3244 C   0  0  0  0  0  0  0  0  0  0  0  0
   18.2136    4.9777    1.2008 O   0  0  0  0  0  0  0  0  0  0  0  0
   17.8879    4.1547    3.4414 C   0  0  0  0  0  0  0  0  0  0  0  0
    6.6248    1.6484    3.0851 H   0  0  0  0  0  0  0  0  0  0  0  0
    4.5223    1.9678    1.0107 H   0  0  0  0  0  0  0  0  0  0  0  0
    4.7974    0.0396   -0.8408 H   0  0  0  0  0  0  0  0  0  0  0  0
    8.5697   -1.7702   -0.4209 H   0  0  0  0  0  0  0  0  0  0  0  0
    9.2882   -0.2480    2.8654 H   0  0  0  0  0  0  0  0  0  0  0  0
   10.0779   -0.7225    1.3594 H   0  0  0  0  0  0  0  0  0  0  0  0
    6.5727   -1.3638   -1.7285 H   0  0  0  0  0  0  0  0  0  0  0  0
    9.3641   -2.9913    1.6362 H   0  0  0  0  0  0  0  0  0  0  0  0
    8.4315   -2.5551    3.0618 H   0  0  0  0  0  0  0  0  0  0  0  0
   10.3478   -2.1762    4.3439 H   0  0  0  0  0  0  0  0  0  0  0  0
   11.3772   -2.1013    2.9182 H   0  0  0  0  0  0  0  0  0  0  0  0
   10.0763   -4.6972    3.2558 H   0  0  0  0  0  0  0  0  0  0  0  0
   12.0344   -5.6334    3.8904 H   0  0  0  0  0  0  0  0  0  0  0  0
   13.7706   -4.5328    5.0374 H   0  0  0  0  0  0  0  0  0  0  0  0
   12.9331   -2.9925    4.8743 H   0  0  0  0  0  0  0  0  0  0  0  0
   13.5281   -3.1365    2.4012 H   0  0  0  0  0  0  0  0  0  0  0  0
   14.6670   -4.3866    2.8887 H   0  0  0  0  0  0  0  0  0  0  0  0
   15.6175   -2.7357    4.5197 H   0  0  0  0  0  0  0  0  0  0  0  0
   14.6305   -1.5141    3.7228 H   0  0  0  0  0  0  0  0  0  0  0  0
   15.7512   -2.0016    1.6054 H   0  0  0  0  0  0  0  0  0  0  0  0
   16.7635   -3.1795    2.4345 H   0  0  0  0  0  0  0  0  0  0  0  0
   17.8844   -1.5333    3.6541 H   0  0  0  0  0  0  0  0  0  0  0  0
   16.6561   -0.3248    3.2953 H   0  0  0  0  0  0  0  0  0  0  0  0
   17.3560   -0.1680    1.0335 H   0  0  0  0  0  0  0  0  0  0  0  0
   18.4417   -1.5557    1.2429 H   0  0  0  0  0  0  0  0  0  0  0  0
   19.7913    0.3751    1.2041 H   0  0  0  0  0  0  0  0  0  0  0  0
   19.6899   -0.2063    2.8846 H   0  0  0  0  0  0  0  0  0  0  0  0
   18.4059    1.0284    4.5411 H   0  0  0  0  0  0  0  0  0  0  0  0
   18.4010    2.2111   -0.2614 H   0  0  0  0  0  0  0  0  0  0  0  0
   17.6824    3.2073    5.3131 H   0  0  0  0  0  0  0  0  0  0  0  0
   18.2752    5.8674    1.4883 H   0  0  0  0  0  0  0  0  0  0  0  0
   17.5797    5.0836    3.7690 H   0  0  0  0  0  0  0  0  0  0  0  0
  1  2  1  0  0  0  0
  1 29  1  0  0  0  0
  2  3  2  0  0  0  0
  2  4  1  0  0  0  0
  3  5  1  0  0  0  0
  3  6  1  0  0  0  0
  4  7  2  0  0  0  0
  4  8  1  0  0  0  0
  5 30  1  0  0  0  0
  6  9  2  0  0  0  0
  6 31  1  0  0  0  0
  7  9  1  0  0  0  0
  7 32  1  0  0  0  0
  8 10  1  0  0  0  0
  8 33  1  0  0  0  0
  8 34  1  0  0  0  0
  9 35  1  0  0  0  0
 10 11  1  0  0  0  0
 10 36  1  0  0  0  0
 10 37  1  0  0  0  0
 11 12  1  0  0  0  0
 11 38  1  0  0  0  0
 11 39  1  0  0  0  0
 12 13  2  0  0  0  0
 12 40  1  0  0  0  0
 13 14  1  0  0  0  0
 13 41  1  0  0  0  0
 14 15  1  0  0  0  0
 14 42  1  0  0  0  0
 14 43  1  0  0  0  0
 15 16  1  0  0  0  0
 15 44  1  0  0  0  0
 15 45  1  0  0  0  0
 16 17  1  0  0  0  0
 16 46  1  0  0  0  0
 16 47  1  0  0  0  0
 17 18  1  0  0  0  0
 17 48  1  0  0  0  0
 17 49  1  0  0  0  0
 18 19  1  0  0  0  0
 18 50  1  0  0  0  0
 18 51  1  0  0  0  0
 19 20  1  0  0  0  0
 19 52  1  0  0  0  0
 19 53  1  0  0  0  0
 20 21  1  0  0  0  0
 20 54  1  0  0  0  0
 20 55  1  0  0  0  0
 21 22  2  0  0  0  0
 21 23  1  0  0  0  0
 22 24  1  0  0  0  0
 22 25  1  0  0  0  0
 23 26  2  0  0  0  0
 23 56  1  0  0  0  0
 24 57  1  0  0  0  0
 25 27  1  0  0  0  0
 25 28  2  0  0  0  0
 26 28  1  0  0  0  0
 26 58  1  0  0  0  0
 27 59  1  0  0  0  0
 28 60  1  0  0  0  0
M  END
>  <Code-name>
206

>  <Compound>
Gerronemins B

>  <Specie>
Genorrema

>  <Reference>
ZAIDMAN et al.,
2005; KAWAGISHI et al., 2003

>  <Organism>
COX-2

>  <Smiles>
Oc1cccc(CCCCCCC/C=C\CCCc2cccc(O)c2O)c1O

>  <MMFF94 Energy>
26.696

>  <Total Molweight>
384.514

>  <Molweight>
384.514

>  <Monoisotopic Mass>
384.230060

>  <cLogP>
6.77

>  <cLogS>
-4.542

>  <H-Acceptors>
4

>  <H-Donors>
4

>  <Total Surface Area>
322.52

>  <Relative PSA>
0.16247

>  <Polar Surface Area>
80.92

>  <Druglikeness>
-11.281

>  <Mutagenic>
none

>  <Tumorigenic>
none

>  <Reproductive Effective>
none

>  <Irritant>
none

>  <Nasty Functions>


>  <Shape Index>
0.71429

>  <Molecular Flexibility>
0.55435

>  <Molecular Complexity>
0.68861

>  <Fragments>
1

>  <Non-H Atoms>
28

>  <Non-C/H Atoms>
4

>  <Metal-Atoms>
0

>  <Electronegative Atoms>
4

>  <Stereo Centers>
0

>  <Rotatable Bonds>
12

>  <Rings Closures>
2

>  <Small Rings>
2

>  <Aromatic Rings>
2

>  <Aromatic Atoms>
12

>  <sp3-Atoms>
14

>  <Symmetric atoms>
0

>  <Amides>
0

>  <Amines>
0

>  <Alkyl-Amines>
0

>  <Aromatic Amines>
0

>  <Aromatic Nitrogens>
0

>  <Basic Nitrogens>
0

>  <Acidic Oxygens>
0

>  <Stereo Configuration>


> <Gold.Version>
5.8.1

> <Gold.Id.Protein>
ID_2|Prot_COX2_5IKQ_Alig|mol2

> <Gold.Goldscore.Fitness>
81.3085

> <Gold.Goldscore.Internal.Vdw>
-5.9667

> <Gold.Goldscore.Internal.Torsion>
-10.5344

> <Gold.Goldscore.External.Vdw>
57.6365

> <Gold.Goldscore.Internal.HBond>
0.0000

> <Gold.Goldscore.External.HBond>
8.0290

> <Gold.Goldscore.Internal.Correction>
-10.5304

> <Gold.Goldscore.Hbonds>
donor molecule, donor type, donor heavy atom, donor atom, acceptor molecule, acceptor atom, score
      P1  H  5703  5712       L1     5  0.47
      L1  H     1    29       P1  8031  0.39
      L1  H    24    57       P1  7951  0.75
      L1  H    27    59       P1  1361  0.90

> <Gold.Goldscore.Internal.Vdw.Weighted>
-5.9667

> <Gold.Goldscore.Internal.Torsion.Weighted>
-10.5344

> <Gold.Goldscore.External.Vdw.Weighted>
79.2502

> <Gold.Goldscore.Internal.HBond.Weighted>
0.0000

> <Gold.Goldscore.External.HBond.Weighted>
8.0290

> <Gold.Goldscore.Internal.Correction.Weighted>
-10.5304

> <Gold.Protein.RotatedTorsions>
[ 5077 5068 5067 5065 ] final -164.69 input  179.94 | X-H torsion
[ 5157 5152 5151 5148 ] final  119.92 input -179.92 | X-H torsion
[ 5185 5176 5175 5173 ] final -178.12 input -179.99 | X-H torsion
[ 5712 5703 5702 5700 ] final  155.54 input  180.00 | X-H torsion
[ 8036 8031 8030 8027 ] final  126.36 input -179.94 | X-H torsion
[ 2749 2745 2743 2740 ] final    4.80 input  -60.05 | X-H torsion
[ 1366 1361 1360 1357 ] final  -85.71 input  -60.09 | X-H torsion
[ 2556 2551 2550 2547 ] final  -51.24 input   59.97 | X-H torsion

> <Gold.Protein.ActiveResidues>
 PRO86   VAL89   HIS90   LEU93   THR94   ILE112  MET113  TYR115  VAL116  LEU117 
 THR118  SER119  ARG120  SER121  LEU123  ILE124  GLN192  SER194  PHE198  PHE201 
 ALA202  GLN203  PHE205  THR206  PHE209  PHE210  VAL228  ILE341  ILE343  VAL344 
 ILE345  GLU346  ASP347  TYR348  VAL349  GLN350  HIS351  LEU352  SER353  GLY354 
 TYR355  PHE357  LEU359  LYS360  GLU380  PHE381  ASN382  THR383  LEU384  TYR385 
 HIS386  TRP387  LEU390  VAL434  LEU507  ARG513  ALA516  ILE517  PHE518  GLY519 
 GLU520  THR521  MET522  VAL523  GLU524  VAL525  GLY526  ALA527  PRO528  PHE529 
 SER530  LEU531  LYS532  GLY533  LEU534  MET535  COH609 

> <Gold.Protein.RotatedAtoms>
   18.1474    7.6048    3.3146 H   0  0  0  0  0  0  0  0  0  0  0  0  # atno 1366 bound_to 1361
    4.7934   -9.1265    8.0811 H   0  0  0  0  0  0  0  0  0  0  0  0  # atno 2556 bound_to 2551
   -4.1379    0.2155    0.8932 H   0  0  0  0  0  0  0  0  0  0  0  0  # atno 2749 bound_to 2745
    2.0635   -1.7391    3.7075 H   0  0  0  0  0  0  0  0  0  0  0  0  # atno 5077 bound_to 5068
   12.9205   -1.9618    9.1664 H   0  0  0  0  0  0  0  0  0  0  0  0  # atno 5157 bound_to 5152
   15.6186    0.3820    5.0640 H   0  0  0  0  0  0  0  0  0  0  0  0  # atno 5185 bound_to 5176
    2.9459    0.0547    2.3590 H   0  0  0  0  0  0  0  0  0  0  0  0  # atno 5712 bound_to 5703
    5.1069    3.8130    3.3187 H   0  0  0  0  0  0  0  0  0  0  0  0  # atno 8036 bound_to 8031
    0.5928   -1.6017    3.9896 LP  0  0  0  0  0  0  0  0  0  0  0  0  # atno 8267 bound_to 5068
    1.4207   -2.9844    4.2528 LP  0  0  0  0  0  0  0  0  0  0  0  0  # atno 8268 bound_to 5068
   11.8516   -3.0143    9.2889 LP  0  0  0  0  0  0  0  0  0  0  0  0  # atno 8279 bound_to 5152
   11.5289   -1.4142    9.3355 LP  0  0  0  0  0  0  0  0  0  0  0  0  # atno 8280 bound_to 5152
   15.1690   -0.9646    4.5710 LP  0  0  0  0  0  0  0  0  0  0  0  0  # atno 8281 bound_to 5176
   16.7324   -0.6104    4.8819 LP  0  0  0  0  0  0  0  0  0  0  0  0  # atno 8282 bound_to 5176
    2.3196   -1.2496    2.7659 LP  0  0  0  0  0  0  0  0  0  0  0  0  # atno 8283 bound_to 5703
    1.5162    0.1715    2.8076 LP  0  0  0  0  0  0  0  0  0  0  0  0  # atno 8284 bound_to 5703
    5.0955    5.3159    3.3499 LP  0  0  0  0  0  0  0  0  0  0  0  0  # atno 8309 bound_to 8031
    6.3891    4.4291    3.8046 LP  0  0  0  0  0  0  0  0  0  0  0  0  # atno 8310 bound_to 8031
   -2.8914   -0.5902    1.1388 LP  0  0  0  0  0  0  0  0  0  0  0  0  # atno 8323 bound_to 2745
   -3.3638   -0.1208   -0.3522 LP  0  0  0  0  0  0  0  0  0  0  0  0  # atno 8324 bound_to 2745
   18.8566    6.4905    2.5940 LP  0  0  0  0  0  0  0  0  0  0  0  0  # atno 8335 bound_to 1361
   17.6324    7.3399    1.9259 LP  0  0  0  0  0  0  0  0  0  0  0  0  # atno 8336 bound_to 1361
    4.5374   -9.0124    6.6028 LP  0  0  0  0  0  0  0  0  0  0  0  0  # atno 8342 bound_to 2551
    5.2587  -10.3118    7.2795 LP  0  0  0  0  0  0  0  0  0  0  0  0  # atno 8343 bound_to 2551

