
207|LMW3_p|sdf|207|dock22
  -GOLD-   6102211143D 1   1.00000     0.00000

 68 69  0  0  0  0  0  0  0  0  1 V2000
    7.6573    0.9652    2.5031 O   0  0  0  0  0  0  0  0  0  0  0  0
    7.3881    0.2027    1.3987 C   0  0  0  0  0  0  0  0  0  0  0  0
    6.2678    0.5137    0.6260 C   0  0  0  0  0  0  0  0  0  0  0  0
    8.2248   -0.8611    1.0580 C   0  0  0  0  0  0  0  0  0  0  0  0
    5.4951    1.5703    1.0265 O   0  0  0  0  0  0  0  0  0  0  0  0
    5.9604   -0.2286   -0.5072 C   0  0  0  0  0  0  0  0  0  0  0  0
    7.9146   -1.6036   -0.0920 C   0  0  0  0  0  0  0  0  0  0  0  0
    9.4487   -1.1987    1.8718 C   0  0  0  0  0  0  0  0  0  0  0  0
    6.7908   -1.2912   -0.8659 C   0  0  0  0  0  0  0  0  0  0  0  0
    9.3586   -2.6026    2.4771 C   0  0  0  0  0  0  0  0  0  0  0  0
   10.4194   -2.8045    3.5616 C   0  0  0  0  0  0  0  0  0  0  0  0
   10.5596   -4.2610    4.0167 C   0  0  0  0  0  0  0  0  0  0  0  0
   11.3162   -5.1391    3.0165 C   0  0  0  0  0  0  0  0  0  0  0  0
   11.5905   -6.5541    3.5367 C   0  0  0  0  0  0  0  0  0  0  0  0
   12.4860   -6.5860    4.7774 C   0  0  0  0  0  0  0  0  0  0  0  0
   13.1186   -7.9665    4.9679 C   0  0  0  0  0  0  0  0  0  0  0  0
   13.8851   -8.0499    6.2891 C   0  0  0  0  0  0  0  0  0  0  0  0
   14.3328   -9.4826    6.5831 C   0  0  0  0  0  0  0  0  0  0  0  0
   15.0992   -9.5658    7.9042 C   0  0  0  0  0  0  0  0  0  0  0  0
   14.1476   -9.5490    9.1015 C   0  0  0  0  0  0  0  0  0  0  0  0
   14.9119   -9.6647   10.4214 C   0  0  0  0  0  0  0  0  0  0  0  0
   13.9791  -10.0571   11.5696 C   0  0  0  0  0  0  0  0  0  0  0  0
   12.7959   -9.1276   11.6724 C   0  0  0  0  0  0  0  0  0  0  0  0
   11.5311   -9.4926   11.2084 C   0  0  0  0  0  0  0  0  0  0  0  0
   12.9378   -7.8734   12.2885 C   0  0  0  0  0  0  0  0  0  0  0  0
   11.3294  -10.7354   10.6737 O   0  0  0  0  0  0  0  0  0  0  0  0
   10.4508   -8.6156   11.3118 C   0  0  0  0  0  0  0  0  0  0  0  0
   11.8431   -7.0111   12.4221 C   0  0  0  0  0  0  0  0  0  0  0  0
    9.2394   -8.9490   10.7759 O   0  0  0  0  0  0  0  0  0  0  0  0
   10.5927   -7.3828   11.9302 C   0  0  0  0  0  0  0  0  0  0  0  0
    7.0144    1.5654    2.8260 H   0  0  0  0  0  0  0  0  0  0  0  0
    4.7476    1.8222    0.5209 H   0  0  0  0  0  0  0  0  0  0  0  0
    5.1304    0.0024   -1.0754 H   0  0  0  0  0  0  0  0  0  0  0  0
    8.5226   -2.3897   -0.3704 H   0  0  0  0  0  0  0  0  0  0  0  0
    9.5458   -0.4855    2.6636 H   0  0  0  0  0  0  0  0  0  0  0  0
   10.2986   -1.1699    1.2225 H   0  0  0  0  0  0  0  0  0  0  0  0
    6.5751   -1.8499   -1.7064 H   0  0  0  0  0  0  0  0  0  0  0  0
    9.5076   -3.3268    1.7036 H   0  0  0  0  0  0  0  0  0  0  0  0
    8.3923   -2.7197    2.9213 H   0  0  0  0  0  0  0  0  0  0  0  0
   10.1540   -2.2088    4.4099 H   0  0  0  0  0  0  0  0  0  0  0  0
   11.3593   -2.5149    3.1400 H   0  0  0  0  0  0  0  0  0  0  0  0
    9.5803   -4.6694    4.1540 H   0  0  0  0  0  0  0  0  0  0  0  0
   11.1259   -4.2557    4.9245 H   0  0  0  0  0  0  0  0  0  0  0  0
   12.2527   -4.6715    2.7949 H   0  0  0  0  0  0  0  0  0  0  0  0
   10.6976   -5.2355    2.1488 H   0  0  0  0  0  0  0  0  0  0  0  0
   12.0682   -7.1137    2.7598 H   0  0  0  0  0  0  0  0  0  0  0  0
   10.6475   -6.9739    3.8185 H   0  0  0  0  0  0  0  0  0  0  0  0
   11.8971   -6.3500    5.6391 H   0  0  0  0  0  0  0  0  0  0  0  0
   13.2696   -5.8691    4.6482 H   0  0  0  0  0  0  0  0  0  0  0  0
   13.7948   -8.1544    4.1603 H   0  0  0  0  0  0  0  0  0  0  0  0
   12.3366   -8.6967    4.9849 H   0  0  0  0  0  0  0  0  0  0  0  0
   13.2504   -7.7135    7.0821 H   0  0  0  0  0  0  0  0  0  0  0  0
   14.7561   -7.4331    6.2134 H   0  0  0  0  0  0  0  0  0  0  0  0
   14.9675   -9.8190    5.7902 H   0  0  0  0  0  0  0  0  0  0  0  0
   13.4618  -10.0995    6.6588 H   0  0  0  0  0  0  0  0  0  0  0  0
   15.7633   -8.7297    7.9750 H   0  0  0  0  0  0  0  0  0  0  0  0
   15.6455  -10.4858    7.9201 H   0  0  0  0  0  0  0  0  0  0  0  0
   13.4688  -10.3718    9.0186 H   0  0  0  0  0  0  0  0  0  0  0  0
   13.6181   -8.6192    9.0986 H   0  0  0  0  0  0  0  0  0  0  0  0
   15.3644   -8.7215   10.6464 H   0  0  0  0  0  0  0  0  0  0  0  0
   15.6568  -10.4255   10.3156 H   0  0  0  0  0  0  0  0  0  0  0  0
   14.5270  -10.0232   12.4881 H   0  0  0  0  0  0  0  0  0  0  0  0
   13.6116  -11.0434   11.3773 H   0  0  0  0  0  0  0  0  0  0  0  0
   13.8610   -7.5837   12.6473 H   0  0  0  0  0  0  0  0  0  0  0  0
   10.4578  -11.0532   10.5425 H   0  0  0  0  0  0  0  0  0  0  0  0
   11.9621   -6.0972   12.8864 H   0  0  0  0  0  0  0  0  0  0  0  0
    8.4850   -8.4250   10.9611 H   0  0  0  0  0  0  0  0  0  0  0  0
    9.7839   -6.7490   12.0250 H   0  0  0  0  0  0  0  0  0  0  0  0
  1  2  1  0  0  0  0
  1 31  1  0  0  0  0
  2  3  2  0  0  0  0
  2  4  1  0  0  0  0
  3  5  1  0  0  0  0
  3  6  1  0  0  0  0
  4  7  2  0  0  0  0
  4  8  1  0  0  0  0
  5 32  1  0  0  0  0
  6  9  2  0  0  0  0
  6 33  1  0  0  0  0
  7  9  1  0  0  0  0
  7 34  1  0  0  0  0
  8 10  1  0  0  0  0
  8 35  1  0  0  0  0
  8 36  1  0  0  0  0
  9 37  1  0  0  0  0
 10 11  1  0  0  0  0
 10 38  1  0  0  0  0
 10 39  1  0  0  0  0
 11 12  1  0  0  0  0
 11 40  1  0  0  0  0
 11 41  1  0  0  0  0
 12 13  1  0  0  0  0
 12 42  1  0  0  0  0
 12 43  1  0  0  0  0
 13 14  1  0  0  0  0
 13 44  1  0  0  0  0
 13 45  1  0  0  0  0
 14 15  1  0  0  0  0
 14 46  1  0  0  0  0
 14 47  1  0  0  0  0
 15 16  1  0  0  0  0
 15 48  1  0  0  0  0
 15 49  1  0  0  0  0
 16 17  1  0  0  0  0
 16 50  1  0  0  0  0
 16 51  1  0  0  0  0
 17 18  1  0  0  0  0
 17 52  1  0  0  0  0
 17 53  1  0  0  0  0
 18 19  1  0  0  0  0
 18 54  1  0  0  0  0
 18 55  1  0  0  0  0
 19 20  1  0  0  0  0
 19 56  1  0  0  0  0
 19 57  1  0  0  0  0
 20 21  1  0  0  0  0
 20 58  1  0  0  0  0
 20 59  1  0  0  0  0
 21 22  1  0  0  0  0
 21 60  1  0  0  0  0
 21 61  1  0  0  0  0
 22 23  1  0  0  0  0
 22 62  1  0  0  0  0
 22 63  1  0  0  0  0
 23 24  2  0  0  0  0
 23 25  1  0  0  0  0
 24 26  1  0  0  0  0
 24 27  1  0  0  0  0
 25 28  2  0  0  0  0
 25 64  1  0  0  0  0
 26 65  1  0  0  0  0
 27 29  1  0  0  0  0
 27 30  2  0  0  0  0
 28 30  1  0  0  0  0
 28 66  1  0  0  0  0
 29 67  1  0  0  0  0
 30 68  1  0  0  0  0
M  END
>  <Code-name>
207

>  <Compound>
Gerronemins C

>  <Specie>
Genorrema

>  <Reference>
ZAIDMAN et al.,
2005; KAWAGISHI et al., 2004

>  <Organism>
COX-2

>  <Smiles>
Oc1cccc(CCCCCCCCCCCCCCc2cccc(O)c2O)c1O

>  <MMFF94 Energy>
23.301

>  <Total Molweight>
414.584

>  <Molweight>
414.584

>  <Monoisotopic Mass>
414.277010

>  <cLogP>
7.931

>  <cLogS>
-5.31

>  <H-Acceptors>
4

>  <H-Donors>
4

>  <Total Surface Area>
351.06

>  <Relative PSA>
0.14926

>  <Polar Surface Area>
80.92

>  <Druglikeness>
-7.4967

>  <Mutagenic>
none

>  <Tumorigenic>
none

>  <Reproductive Effective>
none

>  <Irritant>
none

>  <Nasty Functions>


>  <Shape Index>
0.73333

>  <Molecular Flexibility>
0.47983

>  <Molecular Complexity>
0.6909

>  <Fragments>
1

>  <Non-H Atoms>
30

>  <Non-C/H Atoms>
4

>  <Metal-Atoms>
0

>  <Electronegative Atoms>
4

>  <Stereo Centers>
0

>  <Rotatable Bonds>
15

>  <Rings Closures>
2

>  <Small Rings>
2

>  <Aromatic Rings>
2

>  <Aromatic Atoms>
12

>  <sp3-Atoms>
18

>  <Symmetric atoms>
15

>  <Amides>
0

>  <Amines>
0

>  <Alkyl-Amines>
0

>  <Aromatic Amines>
0

>  <Aromatic Nitrogens>
0

>  <Basic Nitrogens>
0

>  <Acidic Oxygens>
0

>  <Stereo Configuration>


> <Gold.Version>
5.8.1

> <Gold.Id.Protein>
ID_2|Prot_COX2_5IKQ_Alig|mol2

> <Gold.Goldscore.Fitness>
73.7023

> <Gold.Goldscore.Internal.Vdw>
-14.2524

> <Gold.Goldscore.Internal.Torsion>
-4.5179

> <Gold.Goldscore.External.Vdw>
54.4395

> <Gold.Goldscore.Internal.HBond>
0.0000

> <Gold.Goldscore.External.HBond>
2.8145

> <Gold.Goldscore.Internal.Correction>
-14.8038

> <Gold.Goldscore.Hbonds>
donor molecule, donor type, donor heavy atom, donor atom, acceptor molecule, acceptor atom, score
      P1  H  5703  5712       L1     5  0.04
      P1  H  2529  2537       L1    29  1.00
      L1  H     1    31       P1  8031  0.05
      L1  H    29    67       P1  5118  0.32

> <Gold.Goldscore.Internal.Vdw.Weighted>
-14.2524

> <Gold.Goldscore.Internal.Torsion.Weighted>
-4.5179

> <Gold.Goldscore.External.Vdw.Weighted>
74.8543

> <Gold.Goldscore.Internal.HBond.Weighted>
0.0000

> <Gold.Goldscore.External.HBond.Weighted>
2.8145

> <Gold.Goldscore.Internal.Correction.Weighted>
-14.8038

> <Gold.Protein.RotatedTorsions>
[ 5077 5068 5067 5065 ] final -155.35 input  179.94 | X-H torsion
[ 5157 5152 5151 5148 ] final -172.90 input -179.92 | X-H torsion
[ 5185 5176 5175 5173 ] final  105.98 input -179.99 | X-H torsion
[ 5712 5703 5702 5700 ] final  159.06 input  180.00 | X-H torsion
[ 8036 8031 8030 8027 ] final -177.97 input -179.94 | X-H torsion
[ 2749 2745 2743 2740 ] final  174.86 input  -60.05 | X-H torsion
[ 1366 1361 1360 1357 ] final -130.98 input  -60.09 | X-H torsion
[ 2556 2551 2550 2547 ] final   98.89 input   59.97 | X-H torsion

> <Gold.Protein.ActiveResidues>
 PRO86   VAL89   HIS90   LEU93   THR94   ILE112  MET113  TYR115  VAL116  LEU117 
 THR118  SER119  ARG120  SER121  LEU123  ILE124  GLN192  SER194  PHE198  PHE201 
 ALA202  GLN203  PHE205  THR206  PHE209  PHE210  VAL228  ILE341  ILE343  VAL344 
 ILE345  GLU346  ASP347  TYR348  VAL349  GLN350  HIS351  LEU352  SER353  GLY354 
 TYR355  PHE357  LEU359  LYS360  GLU380  PHE381  ASN382  THR383  LEU384  TYR385 
 HIS386  TRP387  LEU390  VAL434  LEU507  ARG513  ALA516  ILE517  PHE518  GLY519 
 GLU520  THR521  MET522  VAL523  GLU524  VAL525  GLY526  ALA527  PRO528  PHE529 
 SER530  LEU531  LYS532  GLY533  LEU534  MET535  COH609 

> <Gold.Protein.RotatedAtoms>
   18.5918    7.1906    3.3460 H   0  0  0  0  0  0  0  0  0  0  0  0  # atno 1366 bound_to 1361
    5.0429  -10.0872    6.9204 H   0  0  0  0  0  0  0  0  0  0  0  0  # atno 2556 bound_to 2551
   -2.8962   -0.4081    0.1542 H   0  0  0  0  0  0  0  0  0  0  0  0  # atno 2749 bound_to 2745
    2.1197   -1.8521    3.7320 H   0  0  0  0  0  0  0  0  0  0  0  0  # atno 5077 bound_to 5068
   12.3037   -1.3442    9.2262 H   0  0  0  0  0  0  0  0  0  0  0  0  # atno 5157 bound_to 5152
   15.0413   -0.3422    4.7786 H   0  0  0  0  0  0  0  0  0  0  0  0  # atno 5185 bound_to 5176
    2.9208    0.0961    2.3607 H   0  0  0  0  0  0  0  0  0  0  0  0  # atno 5712 bound_to 5703
    5.7998    3.7481    3.5592 H   0  0  0  0  0  0  0  0  0  0  0  0  # atno 8036 bound_to 8031
    0.6744   -1.4866    3.9288 LP  0  0  0  0  0  0  0  0  0  0  0  0  # atno 8267 bound_to 5068
    1.2716   -2.9642    4.2843 LP  0  0  0  0  0  0  0  0  0  0  0  0  # atno 8268 bound_to 5068
   12.8567   -2.7438    9.2068 LP  0  0  0  0  0  0  0  0  0  0  0  0  # atno 8279 bound_to 5152
   11.2615   -2.4233    9.3461 LP  0  0  0  0  0  0  0  0  0  0  0  0  # atno 8280 bound_to 5152
   16.3120   -1.1378    4.6741 LP  0  0  0  0  0  0  0  0  0  0  0  0  # atno 8281 bound_to 5176
   16.2827    0.4324    5.1215 LP  0  0  0  0  0  0  0  0  0  0  0  0  # atno 8282 bound_to 5176
    2.3753   -1.2492    2.7496 LP  0  0  0  0  0  0  0  0  0  0  0  0  # atno 8283 bound_to 5703
    1.4906    0.1214    2.8219 LP  0  0  0  0  0  0  0  0  0  0  0  0  # atno 8284 bound_to 5703
    4.6145    4.5953    3.1888 LP  0  0  0  0  0  0  0  0  0  0  0  0  # atno 8309 bound_to 8031
    6.0387    5.2275    3.6773 LP  0  0  0  0  0  0  0  0  0  0  0  0  # atno 8310 bound_to 8031
   -4.2190    0.3087    0.1568 LP  0  0  0  0  0  0  0  0  0  0  0  0  # atno 8323 bound_to 2745
   -3.5234   -0.2728    1.5150 LP  0  0  0  0  0  0  0  0  0  0  0  0  # atno 8324 bound_to 2745
   18.4677    6.5613    1.9849 LP  0  0  0  0  0  0  0  0  0  0  0  0  # atno 8335 bound_to 1361
   17.4898    7.7646    2.4974 LP  0  0  0  0  0  0  0  0  0  0  0  0  # atno 8336 bound_to 1361
    5.0407   -9.4723    8.2937 LP  0  0  0  0  0  0  0  0  0  0  0  0  # atno 8342 bound_to 2551
    4.4569   -8.7024    6.9773 LP  0  0  0  0  0  0  0  0  0  0  0  0  # atno 8343 bound_to 2551

