
208|LMW3_p|sdf|208|dock429
  -GOLD-   6102219353D 1   1.00000     0.00000

 66 67  0  0  0  0  0  0  0  0  1 V2000
    7.5794    1.0356    3.0393 O   0  0  0  0  0  0  0  0  0  0  0  0
    7.9168   -0.0417    2.2647 C   0  0  0  0  0  0  0  0  0  0  0  0
    7.5147   -0.0301    0.9243 C   0  0  0  0  0  0  0  0  0  0  0  0
    8.6249   -1.1344    2.7859 C   0  0  0  0  0  0  0  0  0  0  0  0
    6.8124    1.0423    0.4459 O   0  0  0  0  0  0  0  0  0  0  0  0
    7.8272   -1.0929    0.0809 C   0  0  0  0  0  0  0  0  0  0  0  0
    8.9411   -2.1967    1.9214 C   0  0  0  0  0  0  0  0  0  0  0  0
    9.0488   -1.2256    4.2309 C   0  0  0  0  0  0  0  0  0  0  0  0
    8.5455   -2.1763    0.5820 C   0  0  0  0  0  0  0  0  0  0  0  0
   10.1820   -0.2529    4.5714 C   0  0  0  0  0  0  0  0  0  0  0  0
   11.4435   -0.6074    3.7823 C   0  0  0  0  0  0  0  0  0  0  0  0
   12.6083    0.3374    4.0877 C   0  0  0  0  0  0  0  0  0  0  0  0
   13.9122   -0.0790    3.3901 C   0  0  0  0  0  0  0  0  0  0  0  0
   14.3771   -1.4468    3.8076 C   0  0  0  0  0  0  0  0  0  0  0  0
   15.4327   -2.1339    3.3408 C   0  0  0  0  0  0  0  0  0  0  0  0
   16.4295   -1.7017    2.3011 C   0  0  0  0  0  0  0  0  0  0  0  0
   17.4641   -0.6765    2.7759 C   0  0  0  0  0  0  0  0  0  0  0  0
   18.4029   -0.1729    1.6754 C   0  0  0  0  0  0  0  0  0  0  0  0
   18.9264    1.2282    2.0015 C   0  0  0  0  0  0  0  0  0  0  0  0
   19.7527    1.8002    0.8483 C   0  0  0  0  0  0  0  0  0  0  0  0
   20.0833    3.2748    1.0840 C   0  0  0  0  0  0  0  0  0  0  0  0
   20.5723    3.9498   -0.1996 C   0  0  0  0  0  0  0  0  0  0  0  0
   19.5157    3.9198   -1.2746 C   0  0  0  0  0  0  0  0  0  0  0  0
   19.7296    3.3005   -2.5061 C   0  0  0  0  0  0  0  0  0  0  0  0
   18.2782    4.5474   -1.0556 C   0  0  0  0  0  0  0  0  0  0  0  0
   20.8986    2.6308   -2.7441 O   0  0  0  0  0  0  0  0  0  0  0  0
   18.7507    3.3291   -3.5000 C   0  0  0  0  0  0  0  0  0  0  0  0
   17.2868    4.5457   -2.0431 C   0  0  0  0  0  0  0  0  0  0  0  0
   19.0031    2.7915   -4.7305 O   0  0  0  0  0  0  0  0  0  0  0  0
   17.5229    3.9324   -3.2724 C   0  0  0  0  0  0  0  0  0  0  0  0
    7.6430    1.9025    2.6894 H   0  0  0  0  0  0  0  0  0  0  0  0
    6.4263    1.0066   -0.4071 H   0  0  0  0  0  0  0  0  0  0  0  0
    7.5291   -1.0782   -0.9070 H   0  0  0  0  0  0  0  0  0  0  0  0
    9.4736   -3.0038    2.2818 H   0  0  0  0  0  0  0  0  0  0  0  0
    9.3816   -2.2232    4.4286 H   0  0  0  0  0  0  0  0  0  0  0  0
    8.2045   -0.9660    4.8347 H   0  0  0  0  0  0  0  0  0  0  0  0
    8.7858   -2.9657   -0.0378 H   0  0  0  0  0  0  0  0  0  0  0  0
   10.3933   -0.3105    5.6188 H   0  0  0  0  0  0  0  0  0  0  0  0
    9.8775    0.7395    4.3120 H   0  0  0  0  0  0  0  0  0  0  0  0
   11.2216   -0.5526    2.7370 H   0  0  0  0  0  0  0  0  0  0  0  0
   11.7407   -1.5946    4.0691 H   0  0  0  0  0  0  0  0  0  0  0  0
   12.7737    0.3454    5.1448 H   0  0  0  0  0  0  0  0  0  0  0  0
   12.3417    1.3062    3.7200 H   0  0  0  0  0  0  0  0  0  0  0  0
   14.6740    0.6317    3.6339 H   0  0  0  0  0  0  0  0  0  0  0  0
   13.7230   -0.1072    2.3373 H   0  0  0  0  0  0  0  0  0  0  0  0
   13.8189   -1.9130    4.5397 H   0  0  0  0  0  0  0  0  0  0  0  0
   15.5773   -3.0725    3.7448 H   0  0  0  0  0  0  0  0  0  0  0  0
   15.8896   -1.2726    1.4830 H   0  0  0  0  0  0  0  0  0  0  0  0
   16.9812   -2.5792    2.0356 H   0  0  0  0  0  0  0  0  0  0  0  0
   18.0581   -1.1299    3.5417 H   0  0  0  0  0  0  0  0  0  0  0  0
   16.9157    0.1738    3.1239 H   0  0  0  0  0  0  0  0  0  0  0  0
   17.8698   -0.1404    0.7482 H   0  0  0  0  0  0  0  0  0  0  0  0
   19.2358   -0.8408    1.6051 H   0  0  0  0  0  0  0  0  0  0  0  0
   19.5404    1.1752    2.8763 H   0  0  0  0  0  0  0  0  0  0  0  0
   18.0867    1.8711    2.1641 H   0  0  0  0  0  0  0  0  0  0  0  0
   19.1948    1.7083   -0.0601 H   0  0  0  0  0  0  0  0  0  0  0  0
   20.6700    1.2530    0.7842 H   0  0  0  0  0  0  0  0  0  0  0  0
   20.8492    3.3452    1.8278 H   0  0  0  0  0  0  0  0  0  0  0  0
   19.1928    3.7719    1.4076 H   0  0  0  0  0  0  0  0  0  0  0  0
   21.4426    3.4371   -0.5526 H   0  0  0  0  0  0  0  0  0  0  0  0
   20.7974    4.9720    0.0225 H   0  0  0  0  0  0  0  0  0  0  0  0
   18.0978    5.0161   -0.1541 H   0  0  0  0  0  0  0  0  0  0  0  0
   21.1652    2.4519   -3.6245 H   0  0  0  0  0  0  0  0  0  0  0  0
   16.3782    4.9998   -1.8608 H   0  0  0  0  0  0  0  0  0  0  0  0
   18.2970    2.4661   -5.2534 H   0  0  0  0  0  0  0  0  0  0  0  0
   16.7941    3.9274   -4.0030 H   0  0  0  0  0  0  0  0  0  0  0  0
  1  2  1  0  0  0  0
  1 31  1  0  0  0  0
  2  3  2  0  0  0  0
  2  4  1  0  0  0  0
  3  5  1  0  0  0  0
  3  6  1  0  0  0  0
  4  7  2  0  0  0  0
  4  8  1  0  0  0  0
  5 32  1  0  0  0  0
  6  9  2  0  0  0  0
  6 33  1  0  0  0  0
  7  9  1  0  0  0  0
  7 34  1  0  0  0  0
  8 10  1  0  0  0  0
  8 35  1  0  0  0  0
  8 36  1  0  0  0  0
  9 37  1  0  0  0  0
 10 11  1  0  0  0  0
 10 38  1  0  0  0  0
 10 39  1  0  0  0  0
 11 12  1  0  0  0  0
 11 40  1  0  0  0  0
 11 41  1  0  0  0  0
 12 13  1  0  0  0  0
 12 42  1  0  0  0  0
 12 43  1  0  0  0  0
 13 14  1  0  0  0  0
 13 44  1  0  0  0  0
 13 45  1  0  0  0  0
 14 15  2  0  0  0  0
 14 46  1  0  0  0  0
 15 16  1  0  0  0  0
 15 47  1  0  0  0  0
 16 17  1  0  0  0  0
 16 48  1  0  0  0  0
 16 49  1  0  0  0  0
 17 18  1  0  0  0  0
 17 50  1  0  0  0  0
 17 51  1  0  0  0  0
 18 19  1  0  0  0  0
 18 52  1  0  0  0  0
 18 53  1  0  0  0  0
 19 20  1  0  0  0  0
 19 54  1  0  0  0  0
 19 55  1  0  0  0  0
 20 21  1  0  0  0  0
 20 56  1  0  0  0  0
 20 57  1  0  0  0  0
 21 22  1  0  0  0  0
 21 58  1  0  0  0  0
 21 59  1  0  0  0  0
 22 23  1  0  0  0  0
 22 60  1  0  0  0  0
 22 61  1  0  0  0  0
 23 24  2  0  0  0  0
 23 25  1  0  0  0  0
 24 26  1  0  0  0  0
 24 27  1  0  0  0  0
 25 28  2  0  0  0  0
 25 62  1  0  0  0  0
 26 63  1  0  0  0  0
 27 29  1  0  0  0  0
 27 30  2  0  0  0  0
 28 30  1  0  0  0  0
 28 64  1  0  0  0  0
 29 65  1  0  0  0  0
 30 66  1  0  0  0  0
M  END
>  <Code-name>
208

>  <Compound>
Gerronemins D

>  <Specie>
Genorrema

>  <Reference>
ZAIDMAN et al.,
2005; KAWAGISHI et al., 2005

>  <Organism>
COX-2

>  <Smiles>
Oc1cccc(CCCCCCC/C=C\CCCCCc2cccc(O)c2O)c1O

>  <MMFF94 Energy>
39.407

>  <Total Molweight>
412.568

>  <Molweight>
412.568

>  <Monoisotopic Mass>
412.261360

>  <cLogP>
7.6788

>  <cLogS>
-5.082

>  <H-Acceptors>
4

>  <H-Donors>
4

>  <Total Surface Area>
350.04

>  <Relative PSA>
0.1497

>  <Polar Surface Area>
80.92

>  <Druglikeness>
-11.281

>  <Mutagenic>
none

>  <Tumorigenic>
none

>  <Reproductive Effective>
none

>  <Irritant>
none

>  <Nasty Functions>


>  <Shape Index>
0.73333

>  <Molecular Flexibility>
0.55182

>  <Molecular Complexity>
0.6909

>  <Fragments>
1

>  <Non-H Atoms>
30

>  <Non-C/H Atoms>
4

>  <Metal-Atoms>
0

>  <Electronegative Atoms>
4

>  <Stereo Centers>
0

>  <Rotatable Bonds>
14

>  <Rings Closures>
2

>  <Small Rings>
2

>  <Aromatic Rings>
2

>  <Aromatic Atoms>
12

>  <sp3-Atoms>
16

>  <Symmetric atoms>
0

>  <Amides>
0

>  <Amines>
0

>  <Alkyl-Amines>
0

>  <Aromatic Amines>
0

>  <Aromatic Nitrogens>
0

>  <Basic Nitrogens>
0

>  <Acidic Oxygens>
0

>  <Stereo Configuration>


> <Gold.Version>
5.8.1

> <Gold.Id.Protein>
ID_2|Prot_COX2_5IKQ_Alig|mol2

> <Gold.Goldscore.Fitness>
78.8817

> <Gold.Goldscore.Internal.Vdw>
-11.8844

> <Gold.Goldscore.Internal.Torsion>
-7.3872

> <Gold.Goldscore.External.Vdw>
62.6001

> <Gold.Goldscore.Internal.HBond>
0.0000

> <Gold.Goldscore.External.HBond>
0.0000

> <Gold.Goldscore.Internal.Correction>
-12.0781

> <Gold.Goldscore.Internal.Vdw.Weighted>
-11.8844

> <Gold.Goldscore.Internal.Torsion.Weighted>
-7.3872

> <Gold.Goldscore.External.Vdw.Weighted>
86.0751

> <Gold.Goldscore.Internal.HBond.Weighted>
0.0000

> <Gold.Goldscore.External.HBond.Weighted>
0.0000

> <Gold.Goldscore.Internal.Correction.Weighted>
-12.0781

> <Gold.Protein.RotatedTorsions>
[ 5077 5068 5067 5065 ] final  -79.69 input  179.94 | X-H torsion
[ 5157 5152 5151 5148 ] final -138.02 input -179.92 | X-H torsion
[ 5185 5176 5175 5173 ] final -125.94 input -179.99 | X-H torsion
[ 5712 5703 5702 5700 ] final   54.70 input  180.00 | X-H torsion
[ 8036 8031 8030 8027 ] final -172.40 input -179.94 | X-H torsion
[ 2749 2745 2743 2740 ] final  -89.90 input  -60.05 | X-H torsion
[ 1366 1361 1360 1357 ] final  119.24 input  -60.09 | X-H torsion
[ 2556 2551 2550 2547 ] final -162.84 input   59.97 | X-H torsion

> <Gold.Protein.ActiveResidues>
 PRO86   VAL89   HIS90   LEU93   THR94   ILE112  MET113  TYR115  VAL116  LEU117 
 THR118  SER119  ARG120  SER121  LEU123  ILE124  GLN192  SER194  PHE198  PHE201 
 ALA202  GLN203  PHE205  THR206  PHE209  PHE210  VAL228  ILE341  ILE343  VAL344 
 ILE345  GLU346  ASP347  TYR348  VAL349  GLN350  HIS351  LEU352  SER353  GLY354 
 TYR355  PHE357  LEU359  LYS360  GLU380  PHE381  ASN382  THR383  LEU384  TYR385 
 HIS386  TRP387  LEU390  VAL434  LEU507  ARG513  ALA516  ILE517  PHE518  GLY519 
 GLU520  THR521  MET522  VAL523  GLU524  VAL525  GLY526  ALA527  PRO528  PHE529 
 SER530  LEU531  LYS532  GLY533  LEU534  MET535  COH609 

> <Gold.Protein.RotatedAtoms>
   18.5484    6.6450    2.1745 H   0  0  0  0  0  0  0  0  0  0  0  0  # atno 1366 bound_to 1361
    4.5242   -9.0162    6.8066 H   0  0  0  0  0  0  0  0  0  0  0  0  # atno 2556 bound_to 2551
   -3.2119   -0.3720    1.2770 H   0  0  0  0  0  0  0  0  0  0  0  0  # atno 2749 bound_to 2745
    1.8650   -2.7129    4.0946 H   0  0  0  0  0  0  0  0  0  0  0  0  # atno 5077 bound_to 5068
   11.8342   -1.3947    9.2655 H   0  0  0  0  0  0  0  0  0  0  0  0  # atno 5157 bound_to 5152
   16.2934    0.2315    5.1110 H   0  0  0  0  0  0  0  0  0  0  0  0  # atno 5185 bound_to 5176
    2.5542   -1.0640    2.6253 H   0  0  0  0  0  0  0  0  0  0  0  0  # atno 5712 bound_to 5703
    5.8652    3.7811    3.5816 H   0  0  0  0  0  0  0  0  0  0  0  0  # atno 8036 bound_to 8031
    1.7635   -1.3021    3.5841 LP  0  0  0  0  0  0  0  0  0  0  0  0  # atno 8267 bound_to 5068
    0.4876   -2.1179    4.1948 LP  0  0  0  0  0  0  0  0  0  0  0  0  # atno 8268 bound_to 5068
   13.0860   -2.2271    9.1935 LP  0  0  0  0  0  0  0  0  0  0  0  0  # atno 8279 bound_to 5152
   11.5938   -2.8797    9.3124 LP  0  0  0  0  0  0  0  0  0  0  0  0  # atno 8280 bound_to 5152
   14.8992   -0.2015    4.7542 LP  0  0  0  0  0  0  0  0  0  0  0  0  # atno 8281 bound_to 5176
   16.1920   -1.1928    4.6422 LP  0  0  0  0  0  0  0  0  0  0  0  0  # atno 8282 bound_to 5176
    1.4158   -0.1153    2.8759 LP  0  0  0  0  0  0  0  0  0  0  0  0  # atno 8283 bound_to 5703
    2.8901    0.3799    2.3780 LP  0  0  0  0  0  0  0  0  0  0  0  0  # atno 8284 bound_to 5703
    4.6075    4.5039    3.1870 LP  0  0  0  0  0  0  0  0  0  0  0  0  # atno 8309 bound_to 8031
    5.9673    5.2793    3.6521 LP  0  0  0  0  0  0  0  0  0  0  0  0  # atno 8310 bound_to 8031
   -3.0366   -0.3284   -0.2166 LP  0  0  0  0  0  0  0  0  0  0  0  0  # atno 8323 bound_to 2745
   -4.3277    0.3211    0.5435 LP  0  0  0  0  0  0  0  0  0  0  0  0  # atno 8324 bound_to 2745
   17.4842    7.6946    2.3472 LP  0  0  0  0  0  0  0  0  0  0  0  0  # atno 8335 bound_to 1361
   18.5252    7.2840    3.5366 LP  0  0  0  0  0  0  0  0  0  0  0  0  # atno 8336 bound_to 1361
    5.2308  -10.3003    7.1471 LP  0  0  0  0  0  0  0  0  0  0  0  0  # atno 8342 bound_to 2551
    4.8874   -9.1558    8.2601 LP  0  0  0  0  0  0  0  0  0  0  0  0  # atno 8343 bound_to 2551

