
209|LMW3_p|sdf|209|dock105
  -GOLD-   6102221 53D 1   1.00000     0.00000

 64 65  0  0  0  0  0  0  0  0  1 V2000
   14.4050   -7.5172    2.7809 O   0  0  0  0  0  0  0  0  0  0  0  0
   13.9666   -7.7186    4.0634 C   0  0  0  0  0  0  0  0  0  0  0  0
   14.6708   -8.6702    4.8059 C   0  0  0  0  0  0  0  0  0  0  0  0
   12.8824   -7.0358    4.6250 C   0  0  0  0  0  0  0  0  0  0  0  0
   15.7268   -9.3271    4.2381 O   0  0  0  0  0  0  0  0  0  0  0  0
   14.3134   -8.9734    6.1097 C   0  0  0  0  0  0  0  0  0  0  0  0
   12.5244   -7.3510    5.9488 C   0  0  0  0  0  0  0  0  0  0  0  0
   12.0941   -5.9808    3.8861 C   0  0  0  0  0  0  0  0  0  0  0  0
   13.2308   -8.3116    6.6826 C   0  0  0  0  0  0  0  0  0  0  0  0
   12.8160   -4.6296    3.8428 C   0  0  0  0  0  0  0  0  0  0  0  0
   11.8574   -3.5028    3.5761 C   0  0  0  0  0  0  0  0  0  0  0  0
   12.0347   -2.1943    3.8272 C   0  0  0  0  0  0  0  0  0  0  0  0
   13.2528   -1.5131    4.3909 C   0  0  0  0  0  0  0  0  0  0  0  0
   13.5976   -0.2825    3.5953 C   0  0  0  0  0  0  0  0  0  0  0  0
   13.4792    1.0050    3.9616 C   0  0  0  0  0  0  0  0  0  0  0  0
   12.9422    1.5405    5.2571 C   0  0  0  0  0  0  0  0  0  0  0  0
   11.8805    2.6117    5.0118 C   0  0  0  0  0  0  0  0  0  0  0  0
   10.6011    2.0101    4.4273 C   0  0  0  0  0  0  0  0  0  0  0  0
    9.5448    3.0903    4.1855 C   0  0  0  0  0  0  0  0  0  0  0  0
    8.1575    2.4782    3.9850 C   0  0  0  0  0  0  0  0  0  0  0  0
    8.0266    1.6981    2.6731 C   0  0  0  0  0  0  0  0  0  0  0  0
    6.9416    0.6171    2.7261 C   0  0  0  0  0  0  0  0  0  0  0  0
    6.8301   -0.1377    1.4254 C   0  0  0  0  0  0  0  0  0  0  0  0
    7.8003   -1.0564    1.0235 C   0  0  0  0  0  0  0  0  0  0  0  0
    5.7198    0.0606    0.5899 C   0  0  0  0  0  0  0  0  0  0  0  0
    8.8988   -1.2880    1.8071 O   0  0  0  0  0  0  0  0  0  0  0  0
    7.6743   -1.7557   -0.1783 C   0  0  0  0  0  0  0  0  0  0  0  0
    5.5950   -0.6404   -0.6151 C   0  0  0  0  0  0  0  0  0  0  0  0
    8.6676   -2.6399   -0.5046 O   0  0  0  0  0  0  0  0  0  0  0  0
    6.5755   -1.5539   -1.0043 C   0  0  0  0  0  0  0  0  0  0  0  0
   13.7867   -7.4407    2.0811 H   0  0  0  0  0  0  0  0  0  0  0  0
   16.1419  -10.0311    4.6964 H   0  0  0  0  0  0  0  0  0  0  0  0
   14.8413   -9.6785    6.6475 H   0  0  0  0  0  0  0  0  0  0  0  0
   11.7263   -6.8650    6.3869 H   0  0  0  0  0  0  0  0  0  0  0  0
   11.1519   -5.8506    4.3764 H   0  0  0  0  0  0  0  0  0  0  0  0
   11.9705   -6.3151    2.8773 H   0  0  0  0  0  0  0  0  0  0  0  0
   12.9482   -8.5298    7.6509 H   0  0  0  0  0  0  0  0  0  0  0  0
   13.5510   -4.6525    3.0656 H   0  0  0  0  0  0  0  0  0  0  0  0
   13.2746   -4.4627    4.7950 H   0  0  0  0  0  0  0  0  0  0  0  0
   10.9553   -3.7653    3.1490 H   0  0  0  0  0  0  0  0  0  0  0  0
   11.2357   -1.5799    3.6060 H   0  0  0  0  0  0  0  0  0  0  0  0
   14.0791   -2.1923    4.3611 H   0  0  0  0  0  0  0  0  0  0  0  0
   13.0449   -1.2209    5.3990 H   0  0  0  0  0  0  0  0  0  0  0  0
   13.9726   -0.4487    2.6482 H   0  0  0  0  0  0  0  0  0  0  0  0
   13.7937    1.7064    3.2730 H   0  0  0  0  0  0  0  0  0  0  0  0
   13.7465    1.9678    5.8188 H   0  0  0  0  0  0  0  0  0  0  0  0
   12.4926    0.7340    5.7978 H   0  0  0  0  0  0  0  0  0  0  0  0
   12.2690    3.3356    4.3263 H   0  0  0  0  0  0  0  0  0  0  0  0
   11.6394    3.0662    5.9500 H   0  0  0  0  0  0  0  0  0  0  0  0
   10.2107    1.2866    5.1121 H   0  0  0  0  0  0  0  0  0  0  0  0
   10.8387    1.5514    3.4903 H   0  0  0  0  0  0  0  0  0  0  0  0
    9.8097    3.6468    3.3109 H   0  0  0  0  0  0  0  0  0  0  0  0
    9.5113    3.7271    5.0446 H   0  0  0  0  0  0  0  0  0  0  0  0
    7.4345    3.2670    3.9853 H   0  0  0  0  0  0  0  0  0  0  0  0
    7.9966    1.7855    4.7846 H   0  0  0  0  0  0  0  0  0  0  0  0
    8.9646    1.2296    2.4597 H   0  0  0  0  0  0  0  0  0  0  0  0
    7.7468    2.3959    1.9118 H   0  0  0  0  0  0  0  0  0  0  0  0
    6.0012    1.0821    2.9371 H   0  0  0  0  0  0  0  0  0  0  0  0
    7.2090   -0.0815    3.4911 H   0  0  0  0  0  0  0  0  0  0  0  0
    4.9865    0.7316    0.8675 H   0  0  0  0  0  0  0  0  0  0  0  0
    9.7463   -1.0105    1.5195 H   0  0  0  0  0  0  0  0  0  0  0  0
    4.7734   -0.4809   -1.2189 H   0  0  0  0  0  0  0  0  0  0  0  0
    9.0554   -3.1750    0.1597 H   0  0  0  0  0  0  0  0  0  0  0  0
    6.4858   -2.0717   -1.8924 H   0  0  0  0  0  0  0  0  0  0  0  0
  1  2  1  0  0  0  0
  1 31  1  0  0  0  0
  2  3  2  0  0  0  0
  2  4  1  0  0  0  0
  3  5  1  0  0  0  0
  3  6  1  0  0  0  0
  4  7  2  0  0  0  0
  4  8  1  0  0  0  0
  5 32  1  0  0  0  0
  6  9  2  0  0  0  0
  6 33  1  0  0  0  0
  7  9  1  0  0  0  0
  7 34  1  0  0  0  0
  8 10  1  0  0  0  0
  8 35  1  0  0  0  0
  8 36  1  0  0  0  0
  9 37  1  0  0  0  0
 10 11  1  0  0  0  0
 10 38  1  0  0  0  0
 10 39  1  0  0  0  0
 11 12  2  0  0  0  0
 11 40  1  0  0  0  0
 12 13  1  0  0  0  0
 12 41  1  0  0  0  0
 13 14  1  0  0  0  0
 13 42  1  0  0  0  0
 13 43  1  0  0  0  0
 14 15  2  0  0  0  0
 14 44  1  0  0  0  0
 15 16  1  0  0  0  0
 15 45  1  0  0  0  0
 16 17  1  0  0  0  0
 16 46  1  0  0  0  0
 16 47  1  0  0  0  0
 17 18  1  0  0  0  0
 17 48  1  0  0  0  0
 17 49  1  0  0  0  0
 18 19  1  0  0  0  0
 18 50  1  0  0  0  0
 18 51  1  0  0  0  0
 19 20  1  0  0  0  0
 19 52  1  0  0  0  0
 19 53  1  0  0  0  0
 20 21  1  0  0  0  0
 20 54  1  0  0  0  0
 20 55  1  0  0  0  0
 21 22  1  0  0  0  0
 21 56  1  0  0  0  0
 21 57  1  0  0  0  0
 22 23  1  0  0  0  0
 22 58  1  0  0  0  0
 22 59  1  0  0  0  0
 23 24  2  0  0  0  0
 23 25  1  0  0  0  0
 24 26  1  0  0  0  0
 24 27  1  0  0  0  0
 25 28  2  0  0  0  0
 25 60  1  0  0  0  0
 26 61  1  0  0  0  0
 27 29  1  0  0  0  0
 27 30  2  0  0  0  0
 28 30  1  0  0  0  0
 28 62  1  0  0  0  0
 29 63  1  0  0  0  0
 30 64  1  0  0  0  0
M  END
>  <Code-name>
209

>  <Compound>
Gerronemins E

>  <Specie>
Genorrema

>  <Reference>
ZAIDMAN et al.,
2005; KAWAGISHI et al., 2006

>  <Organism>
COX-2

>  <Smiles>
Oc1cccc(CCCCCCC/C=C\C/C=C\CCc2cccc(O)c2O)c1O

>  <MMFF94 Energy>
36.948

>  <Total Molweight>
410.552

>  <Molweight>
410.552

>  <Monoisotopic Mass>
410.245710

>  <cLogP>
7.4266

>  <cLogS>
-4.854

>  <H-Acceptors>
4

>  <H-Donors>
4

>  <Total Surface Area>
349.02

>  <Relative PSA>
0.15013

>  <Polar Surface Area>
80.92

>  <Druglikeness>
-11.281

>  <Mutagenic>
none

>  <Tumorigenic>
none

>  <Reproductive Effective>
none

>  <Irritant>
none

>  <Nasty Functions>


>  <Shape Index>
0.73333

>  <Molecular Flexibility>
0.60321

>  <Molecular Complexity>
0.6909

>  <Fragments>
1

>  <Non-H Atoms>
30

>  <Non-C/H Atoms>
4

>  <Metal-Atoms>
0

>  <Electronegative Atoms>
4

>  <Stereo Centers>
0

>  <Rotatable Bonds>
13

>  <Rings Closures>
2

>  <Small Rings>
2

>  <Aromatic Rings>
2

>  <Aromatic Atoms>
12

>  <sp3-Atoms>
14

>  <Symmetric atoms>
0

>  <Amides>
0

>  <Amines>
0

>  <Alkyl-Amines>
0

>  <Aromatic Amines>
0

>  <Aromatic Nitrogens>
0

>  <Basic Nitrogens>
0

>  <Acidic Oxygens>
0

>  <Stereo Configuration>


> <Gold.Version>
5.8.1

> <Gold.Id.Protein>
ID_2|Prot_COX2_5IKQ_Alig|mol2

> <Gold.Goldscore.Fitness>
83.5361

> <Gold.Goldscore.Internal.Vdw>
-10.6483

> <Gold.Goldscore.Internal.Torsion>
-9.1910

> <Gold.Goldscore.External.Vdw>
66.3087

> <Gold.Goldscore.Internal.HBond>
0.0000

> <Gold.Goldscore.External.HBond>
1.6872

> <Gold.Goldscore.Internal.Correction>
-10.5136

> <Gold.Goldscore.Hbonds>
donor molecule, donor type, donor heavy atom, donor atom, acceptor molecule, acceptor atom, score
      P1  H  7785  7796       L1     1  0.17
      P1  H   854   861       L1     5  0.33

> <Gold.Goldscore.Internal.Vdw.Weighted>
-10.6483

> <Gold.Goldscore.Internal.Torsion.Weighted>
-9.1910

> <Gold.Goldscore.External.Vdw.Weighted>
91.1745

> <Gold.Goldscore.Internal.HBond.Weighted>
0.0000

> <Gold.Goldscore.External.HBond.Weighted>
1.6872

> <Gold.Goldscore.Internal.Correction.Weighted>
-10.5136

> <Gold.Protein.RotatedTorsions>
[ 5077 5068 5067 5065 ] final  -34.86 input  179.94 | X-H torsion
[ 5157 5152 5151 5148 ] final -135.16 input -179.92 | X-H torsion
[ 5185 5176 5175 5173 ] final -135.34 input -179.99 | X-H torsion
[ 5712 5703 5702 5700 ] final  175.24 input  180.00 | X-H torsion
[ 8036 8031 8030 8027 ] final  136.97 input -179.94 | X-H torsion
[ 2749 2745 2743 2740 ] final   54.23 input  -60.05 | X-H torsion
[ 1366 1361 1360 1357 ] final  -60.42 input  -60.09 | X-H torsion
[ 2556 2551 2550 2547 ] final  -65.27 input   59.97 | X-H torsion

> <Gold.Protein.ActiveResidues>
 PRO86   VAL89   HIS90   LEU93   THR94   ILE112  MET113  TYR115  VAL116  LEU117 
 THR118  SER119  ARG120  SER121  LEU123  ILE124  GLN192  SER194  PHE198  PHE201 
 ALA202  GLN203  PHE205  THR206  PHE209  PHE210  VAL228  ILE341  ILE343  VAL344 
 ILE345  GLU346  ASP347  TYR348  VAL349  GLN350  HIS351  LEU352  SER353  GLY354 
 TYR355  PHE357  LEU359  LYS360  GLU380  PHE381  ASN382  THR383  LEU384  TYR385 
 HIS386  TRP387  LEU390  VAL434  LEU507  ARG513  ALA516  ILE517  PHE518  GLY519 
 GLU520  THR521  MET522  VAL523  GLU524  VAL525  GLY526  ALA527  PRO528  PHE529 
 SER530  LEU531  LYS532  GLY533  LEU534  MET535  COH609 

> <Gold.Protein.RotatedAtoms>
   17.9019    7.7409    3.1124 H   0  0  0  0  0  0  0  0  0  0  0  0  # atno 1366 bound_to 1361
    4.7099   -8.9843    7.9806 H   0  0  0  0  0  0  0  0  0  0  0  0  # atno 2556 bound_to 2551
   -4.0859    0.2712    0.2371 H   0  0  0  0  0  0  0  0  0  0  0  0  # atno 2749 bound_to 2745
    1.2976   -2.8058    4.2731 H   0  0  0  0  0  0  0  0  0  0  0  0  # atno 5077 bound_to 5068
   11.7985   -1.4114    9.2683 H   0  0  0  0  0  0  0  0  0  0  0  0  # atno 5157 bound_to 5152
   16.1852    0.3017    5.1167 H   0  0  0  0  0  0  0  0  0  0  0  0  # atno 5185 bound_to 5176
    2.7771    0.2639    2.3799 H   0  0  0  0  0  0  0  0  0  0  0  0  # atno 5712 bound_to 5703
    5.2289    3.7454    3.3615 H   0  0  0  0  0  0  0  0  0  0  0  0  # atno 8036 bound_to 8031
    2.2501   -1.8292    3.6403 LP  0  0  0  0  0  0  0  0  0  0  0  0  # atno 8267 bound_to 5068
    0.6805   -1.4794    3.9248 LP  0  0  0  0  0  0  0  0  0  0  0  0  # atno 8268 bound_to 5068
   13.0902   -2.1802    9.1937 LP  0  0  0  0  0  0  0  0  0  0  0  0  # atno 8279 bound_to 5152
   11.6322   -2.9066    9.3088 LP  0  0  0  0  0  0  0  0  0  0  0  0  # atno 8280 bound_to 5152
   14.8931   -0.3497    4.7108 LP  0  0  0  0  0  0  0  0  0  0  0  0  # atno 8281 bound_to 5176
   16.3279   -1.1289    4.6788 LP  0  0  0  0  0  0  0  0  0  0  0  0  # atno 8282 bound_to 5176
    2.6244   -1.2027    2.6705 LP  0  0  0  0  0  0  0  0  0  0  0  0  # atno 8283 bound_to 5703
    1.4140   -0.1265    2.8780 LP  0  0  0  0  0  0  0  0  0  0  0  0  # atno 8284 bound_to 5703
    4.9558    5.2225    3.3023 LP  0  0  0  0  0  0  0  0  0  0  0  0  # atno 8309 bound_to 8031
    6.3823    4.6036    3.8009 LP  0  0  0  0  0  0  0  0  0  0  0  0  # atno 8310 bound_to 8031
   -3.5119   -0.2794    1.5142 LP  0  0  0  0  0  0  0  0  0  0  0  0  # atno 8323 bound_to 2745
   -2.8056   -0.4984    0.0582 LP  0  0  0  0  0  0  0  0  0  0  0  0  # atno 8324 bound_to 2745
   18.9099    6.6318    2.9785 LP  0  0  0  0  0  0  0  0  0  0  0  0  # atno 8335 bound_to 1361
   17.8729    7.0358    1.7834 LP  0  0  0  0  0  0  0  0  0  0  0  0  # atno 8336 bound_to 1361
    4.6082   -9.2037    6.4954 LP  0  0  0  0  0  0  0  0  0  0  0  0  # atno 8342 bound_to 2551
    5.2877  -10.2905    7.5072 LP  0  0  0  0  0  0  0  0  0  0  0  0  # atno 8343 bound_to 2551

