
210|LMW3_p|sdf|210|dock446
  -GOLD-   61122 4433D 1   1.00000     0.00000

 70 71  0  0  0  0  0  0  0  0  1 V2000
    7.6873    1.0797    2.2183 O   0  0  0  0  0  0  0  0  0  0  0  0
    7.8242   -0.1573    1.6483 C   0  0  0  0  0  0  0  0  0  0  0  0
    7.1362   -0.4031    0.4546 C   0  0  0  0  0  0  0  0  0  0  0  0
    8.6184   -1.1565    2.2308 C   0  0  0  0  0  0  0  0  0  0  0  0
    6.3670    0.5880   -0.0917 O   0  0  0  0  0  0  0  0  0  0  0  0
    7.2416   -1.6360   -0.1843 C   0  0  0  0  0  0  0  0  0  0  0  0
    8.7213   -2.3941    1.5711 C   0  0  0  0  0  0  0  0  0  0  0  0
    9.3789   -0.9584    3.5212 C   0  0  0  0  0  0  0  0  0  0  0  0
    8.0391   -2.6317    0.3754 C   0  0  0  0  0  0  0  0  0  0  0  0
   10.8710   -0.7442    3.2631 C   0  0  0  0  0  0  0  0  0  0  0  0
   11.6530   -0.5423    4.5627 C   0  0  0  0  0  0  0  0  0  0  0  0
   13.1489   -0.3272    4.3090 C   0  0  0  0  0  0  0  0  0  0  0  0
   13.8510   -1.5964    3.9148 C   0  0  0  0  0  0  0  0  0  0  0  0
   14.9664   -1.7342    3.1785 C   0  0  0  0  0  0  0  0  0  0  0  0
   15.8264   -0.6589    2.5728 C   0  0  0  0  0  0  0  0  0  0  0  0
   17.2616   -1.1023    2.4995 C   0  0  0  0  0  0  0  0  0  0  0  0
   18.3710   -0.3941    2.7709 C   0  0  0  0  0  0  0  0  0  0  0  0
   18.4699    1.0360    3.2211 C   0  0  0  0  0  0  0  0  0  0  0  0
   18.7850    2.0114    2.0820 C   0  0  0  0  0  0  0  0  0  0  0  0
   18.7252    3.4819    2.5070 C   0  0  0  0  0  0  0  0  0  0  0  0
   19.4914    4.3730    1.5269 C   0  0  0  0  0  0  0  0  0  0  0  0
   18.6716    4.6424    0.2630 C   0  0  0  0  0  0  0  0  0  0  0  0
   19.4404    5.5346   -0.7169 C   0  0  0  0  0  0  0  0  0  0  0  0
   18.5981    5.9683   -1.9226 C   0  0  0  0  0  0  0  0  0  0  0  0
   18.1707    4.8273   -2.8134 C   0  0  0  0  0  0  0  0  0  0  0  0
   19.0508    4.1289   -3.6473 C   0  0  0  0  0  0  0  0  0  0  0  0
   16.8158    4.4443   -2.8227 C   0  0  0  0  0  0  0  0  0  0  0  0
   20.3929    4.3952   -3.7301 O   0  0  0  0  0  0  0  0  0  0  0  0
   18.5869    3.0895   -4.4588 C   0  0  0  0  0  0  0  0  0  0  0  0
   16.3609    3.4018   -3.6387 C   0  0  0  0  0  0  0  0  0  0  0  0
   19.4617    2.4186   -5.2673 O   0  0  0  0  0  0  0  0  0  0  0  0
   17.2516    2.7197   -4.4627 C   0  0  0  0  0  0  0  0  0  0  0  0
    7.4435    1.8144    1.6903 H   0  0  0  0  0  0  0  0  0  0  0  0
    5.8321    0.4075   -0.8396 H   0  0  0  0  0  0  0  0  0  0  0  0
    6.7330   -1.8106   -1.0652 H   0  0  0  0  0  0  0  0  0  0  0  0
    9.3099   -3.1384    1.9766 H   0  0  0  0  0  0  0  0  0  0  0  0
    9.2530   -1.8251    4.1359 H   0  0  0  0  0  0  0  0  0  0  0  0
    8.9933   -0.0875    4.0087 H   0  0  0  0  0  0  0  0  0  0  0  0
    8.1262   -3.5466   -0.0941 H   0  0  0  0  0  0  0  0  0  0  0  0
   10.9944    0.1220    2.6473 H   0  0  0  0  0  0  0  0  0  0  0  0
   11.2524   -1.6194    2.7799 H   0  0  0  0  0  0  0  0  0  0  0  0
   11.5287   -1.4087    5.1781 H   0  0  0  0  0  0  0  0  0  0  0  0
   11.2715    0.3340    5.0436 H   0  0  0  0  0  0  0  0  0  0  0  0
   13.5983    0.0507    5.2035 H   0  0  0  0  0  0  0  0  0  0  0  0
   13.2465    0.3649    3.4989 H   0  0  0  0  0  0  0  0  0  0  0  0
   13.4223   -2.4724    4.2522 H   0  0  0  0  0  0  0  0  0  0  0  0
   15.2732   -2.7044    3.0061 H   0  0  0  0  0  0  0  0  0  0  0  0
   15.7619    0.2231    3.1752 H   0  0  0  0  0  0  0  0  0  0  0  0
   15.4779   -0.4584    1.5812 H   0  0  0  0  0  0  0  0  0  0  0  0
   17.4145   -2.0785    2.2017 H   0  0  0  0  0  0  0  0  0  0  0  0
   19.2662   -0.8946    2.6558 H   0  0  0  0  0  0  0  0  0  0  0  0
   19.2461    1.1081    3.9541 H   0  0  0  0  0  0  0  0  0  0  0  0
   17.5141    1.3098    3.6166 H   0  0  0  0  0  0  0  0  0  0  0  0
   18.0754    1.8562    1.2963 H   0  0  0  0  0  0  0  0  0  0  0  0
   19.7879    1.8143    1.7653 H   0  0  0  0  0  0  0  0  0  0  0  0
   19.1578    3.5815    3.4806 H   0  0  0  0  0  0  0  0  0  0  0  0
   17.7008    3.7906    2.5158 H   0  0  0  0  0  0  0  0  0  0  0  0
   20.4040    3.8861    1.2532 H   0  0  0  0  0  0  0  0  0  0  0  0
   19.6908    5.3088    2.0060 H   0  0  0  0  0  0  0  0  0  0  0  0
   17.7590    5.1296    0.5363 H   0  0  0  0  0  0  0  0  0  0  0  0
   18.4713    3.7070   -0.2164 H   0  0  0  0  0  0  0  0  0  0  0  0
   20.2924    4.9941   -1.0732 H   0  0  0  0  0  0  0  0  0  0  0  0
   19.7212    6.4215   -0.1882 H   0  0  0  0  0  0  0  0  0  0  0  0
   19.1752    6.6540   -2.5073 H   0  0  0  0  0  0  0  0  0  0  0  0
   17.7045    6.4100   -1.5339 H   0  0  0  0  0  0  0  0  0  0  0  0
   16.1451    4.9418   -2.2162 H   0  0  0  0  0  0  0  0  0  0  0  0
   20.7637    5.0940   -3.2279 H   0  0  0  0  0  0  0  0  0  0  0  0
   15.3630    3.1386   -3.6295 H   0  0  0  0  0  0  0  0  0  0  0  0
   20.3311    2.2372   -4.9685 H   0  0  0  0  0  0  0  0  0  0  0  0
   16.9226    1.9505   -5.0670 H   0  0  0  0  0  0  0  0  0  0  0  0
  1  2  1  0  0  0  0
  1 33  1  0  0  0  0
  2  3  2  0  0  0  0
  2  4  1  0  0  0  0
  3  5  1  0  0  0  0
  3  6  1  0  0  0  0
  4  7  2  0  0  0  0
  4  8  1  0  0  0  0
  5 34  1  0  0  0  0
  6  9  2  0  0  0  0
  6 35  1  0  0  0  0
  7  9  1  0  0  0  0
  7 36  1  0  0  0  0
  8 10  1  0  0  0  0
  8 37  1  0  0  0  0
  8 38  1  0  0  0  0
  9 39  1  0  0  0  0
 10 11  1  0  0  0  0
 10 40  1  0  0  0  0
 10 41  1  0  0  0  0
 11 12  1  0  0  0  0
 11 42  1  0  0  0  0
 11 43  1  0  0  0  0
 12 13  1  0  0  0  0
 12 44  1  0  0  0  0
 12 45  1  0  0  0  0
 13 14  2  0  0  0  0
 13 46  1  0  0  0  0
 14 15  1  0  0  0  0
 14 47  1  0  0  0  0
 15 16  1  0  0  0  0
 15 48  1  0  0  0  0
 15 49  1  0  0  0  0
 16 17  2  0  0  0  0
 16 50  1  0  0  0  0
 17 18  1  0  0  0  0
 17 51  1  0  0  0  0
 18 19  1  0  0  0  0
 18 52  1  0  0  0  0
 18 53  1  0  0  0  0
 19 20  1  0  0  0  0
 19 54  1  0  0  0  0
 19 55  1  0  0  0  0
 20 21  1  0  0  0  0
 20 56  1  0  0  0  0
 20 57  1  0  0  0  0
 21 22  1  0  0  0  0
 21 58  1  0  0  0  0
 21 59  1  0  0  0  0
 22 23  1  0  0  0  0
 22 60  1  0  0  0  0
 22 61  1  0  0  0  0
 23 24  1  0  0  0  0
 23 62  1  0  0  0  0
 23 63  1  0  0  0  0
 24 25  1  0  0  0  0
 24 64  1  0  0  0  0
 24 65  1  0  0  0  0
 25 26  2  0  0  0  0
 25 27  1  0  0  0  0
 26 28  1  0  0  0  0
 26 29  1  0  0  0  0
 27 30  2  0  0  0  0
 27 66  1  0  0  0  0
 28 67  1  0  0  0  0
 29 31  1  0  0  0  0
 29 32  2  0  0  0  0
 30 32  1  0  0  0  0
 30 68  1  0  0  0  0
 31 69  1  0  0  0  0
 32 70  1  0  0  0  0
M  END
>  <Code-name>
210

>  <Compound>
Gerronemins F

>  <Specie>
Genorrema

>  <Reference>
ZAIDMAN et al.,
2005; KAWAGISHI et al., 2007

>  <Organism>
COX-2

>  <Smiles>
Oc1cccc(CCCCCCC/C=C\C/C=C\CCCCc2cccc(O)c2O)c1O

>  <MMFF94 Energy>
44.155

>  <Total Molweight>
438.606

>  <Molweight>
438.606

>  <Monoisotopic Mass>
438.277010

>  <cLogP>
8.3354

>  <cLogS>
-5.394

>  <H-Acceptors>
4

>  <H-Donors>
4

>  <Total Surface Area>
376.54

>  <Relative PSA>
0.13916

>  <Polar Surface Area>
80.92

>  <Druglikeness>
-11.281

>  <Mutagenic>
none

>  <Tumorigenic>
none

>  <Reproductive Effective>
none

>  <Irritant>
none

>  <Nasty Functions>


>  <Shape Index>
0.75

>  <Molecular Flexibility>
0.59749

>  <Molecular Complexity>
0.69315

>  <Fragments>
1

>  <Non-H Atoms>
32

>  <Non-C/H Atoms>
4

>  <Metal-Atoms>
0

>  <Electronegative Atoms>
4

>  <Stereo Centers>
0

>  <Rotatable Bonds>
15

>  <Rings Closures>
2

>  <Small Rings>
2

>  <Aromatic Rings>
2

>  <Aromatic Atoms>
12

>  <sp3-Atoms>
16

>  <Symmetric atoms>
0

>  <Amides>
0

>  <Amines>
0

>  <Alkyl-Amines>
0

>  <Aromatic Amines>
0

>  <Aromatic Nitrogens>
0

>  <Basic Nitrogens>
0

>  <Acidic Oxygens>
0

>  <Stereo Configuration>


> <Gold.Version>
5.8.1

> <Gold.Id.Protein>
ID_2|Prot_COX2_5IKQ_Alig|mol2

> <Gold.Goldscore.Fitness>
87.3121

> <Gold.Goldscore.Internal.Vdw>
-12.7972

> <Gold.Goldscore.Internal.Torsion>
-6.2704

> <Gold.Goldscore.External.Vdw>
68.4086

> <Gold.Goldscore.Internal.HBond>
0.0000

> <Gold.Goldscore.External.HBond>
0.0000

> <Gold.Goldscore.Internal.Correction>
-12.3178

> <Gold.Goldscore.Internal.Vdw.Weighted>
-12.7972

> <Gold.Goldscore.Internal.Torsion.Weighted>
-6.2704

> <Gold.Goldscore.External.Vdw.Weighted>
94.0618

> <Gold.Goldscore.Internal.HBond.Weighted>
0.0000

> <Gold.Goldscore.External.HBond.Weighted>
0.0000

> <Gold.Goldscore.Internal.Correction.Weighted>
-12.3178

> <Gold.Protein.RotatedTorsions>
[ 5077 5068 5067 5065 ] final    9.58 input  179.94 | X-H torsion
[ 5157 5152 5151 5148 ] final  171.06 input -179.92 | X-H torsion
[ 5185 5176 5175 5173 ] final  -69.90 input -179.99 | X-H torsion
[ 5712 5703 5702 5700 ] final  142.01 input  180.00 | X-H torsion
[ 8036 8031 8030 8027 ] final  163.55 input -179.94 | X-H torsion
[ 2749 2745 2743 2740 ] final -119.33 input  -60.05 | X-H torsion
[ 1366 1361 1360 1357 ] final   34.86 input  -60.09 | X-H torsion
[ 2556 2551 2550 2547 ] final -143.56 input   59.97 | X-H torsion

> <Gold.Protein.ActiveResidues>
 PRO86   VAL89   HIS90   LEU93   THR94   ILE112  MET113  TYR115  VAL116  LEU117 
 THR118  SER119  ARG120  SER121  LEU123  ILE124  GLN192  SER194  PHE198  PHE201 
 ALA202  GLN203  PHE205  THR206  PHE209  PHE210  VAL228  ILE341  ILE343  VAL344 
 ILE345  GLU346  ASP347  TYR348  VAL349  GLN350  HIS351  LEU352  SER353  GLY354 
 TYR355  PHE357  LEU359  LYS360  GLU380  PHE381  ASN382  THR383  LEU384  TYR385 
 HIS386  TRP387  LEU390  VAL434  LEU507  ARG513  ALA516  ILE517  PHE518  GLY519 
 GLU520  THR521  MET522  VAL523  GLU524  VAL525  GLY526  ALA527  PRO528  PHE529 
 SER530  LEU531  LYS532  GLY533  LEU534  MET535  COH609 

> <Gold.Protein.RotatedAtoms>
   17.7568    7.3365    2.0262 H   0  0  0  0  0  0  0  0  0  0  0  0  # atno 1366 bound_to 1361
    4.4867   -8.8589    7.0161 H   0  0  0  0  0  0  0  0  0  0  0  0  # atno 2556 bound_to 2551
   -2.9412   -0.4937    1.0069 H   0  0  0  0  0  0  0  0  0  0  0  0  # atno 2749 bound_to 2745
    0.7983   -2.4788    4.2892 H   0  0  0  0  0  0  0  0  0  0  0  0  # atno 5077 bound_to 5068
   12.5111   -1.4173    9.2077 H   0  0  0  0  0  0  0  0  0  0  0  0  # atno 5157 bound_to 5152
   16.6030   -0.4247    4.9638 H   0  0  0  0  0  0  0  0  0  0  0  0  # atno 5185 bound_to 5176
    3.0185   -0.1161    2.3610 H   0  0  0  0  0  0  0  0  0  0  0  0  # atno 5712 bound_to 5703
    5.5671    3.6888    3.4790 H   0  0  0  0  0  0  0  0  0  0  0  0  # atno 8036 bound_to 8031
    2.2436   -2.5033    3.8745 LP  0  0  0  0  0  0  0  0  0  0  0  0  # atno 8267 bound_to 5068
    1.2849   -1.1970    3.6714 LP  0  0  0  0  0  0  0  0  0  0  0  0  # atno 8268 bound_to 5068
   12.6572   -2.9151    9.2216 LP  0  0  0  0  0  0  0  0  0  0  0  0  # atno 8279 bound_to 5152
   11.2129   -2.1646    9.3533 LP  0  0  0  0  0  0  0  0  0  0  0  0  # atno 8280 bound_to 5152
   15.4032    0.4788    5.0172 LP  0  0  0  0  0  0  0  0  0  0  0  0  # atno 8281 bound_to 5176
   15.3162   -1.0853    4.5560 LP  0  0  0  0  0  0  0  0  0  0  0  0  # atno 8282 bound_to 5176
    2.1073   -1.2181    2.8236 LP  0  0  0  0  0  0  0  0  0  0  0  0  # atno 8283 bound_to 5703
    1.6413    0.3451    2.7475 LP  0  0  0  0  0  0  0  0  0  0  0  0  # atno 8284 bound_to 5703
    4.6967    4.8857    3.2151 LP  0  0  0  0  0  0  0  0  0  0  0  0  # atno 8309 bound_to 8031
    6.2357    5.0083    3.7471 LP  0  0  0  0  0  0  0  0  0  0  0  0  # atno 8310 bound_to 8031
   -3.4245   -0.0848   -0.3580 LP  0  0  0  0  0  0  0  0  0  0  0  0  # atno 8323 bound_to 2745
   -4.2639    0.2232    1.0085 LP  0  0  0  0  0  0  0  0  0  0  0  0  # atno 8324 bound_to 2745
   18.0964    7.6586    3.4562 LP  0  0  0  0  0  0  0  0  0  0  0  0  # atno 8335 bound_to 1361
   18.8600    6.4928    2.6050 LP  0  0  0  0  0  0  0  0  0  0  0  0  # atno 8336 bound_to 1361
    5.1379  -10.2064    6.8600 LP  0  0  0  0  0  0  0  0  0  0  0  0  # atno 8342 bound_to 2551
    5.0251   -9.4378    8.2964 LP  0  0  0  0  0  0  0  0  0  0  0  0  # atno 8343 bound_to 2551

