
N01|LMW3_p|sdf|212|dock6
  -GOLD-   61122 5183D 1   1.00000     0.00000

 40 42  0  0  0  0  0  0  0  0  1 V2000
   11.5889   -6.4473    3.1918 S   0  0  0  0  0  0  0  0  0  0  0  0
   10.2987   -6.8866    2.7147 O   0  0  0  0  0  0  0  0  0  0  0  0
   12.8232   -6.8249    2.5440 O   0  0  0  0  0  0  0  0  0  0  0  0
   11.7112   -6.9931    4.7736 N   0  0  0  0  0  0  0  0  0  0  0  0
   11.5598   -4.6918    3.4113 C   0  0  0  0  0  0  0  0  0  0  0  0
   10.3330   -4.0269    3.5084 C   0  0  0  0  0  0  0  0  0  0  0  0
   12.7656   -3.9922    3.5247 C   0  0  0  0  0  0  0  0  0  0  0  0
   10.3098   -2.6447    3.7071 C   0  0  0  0  0  0  0  0  0  0  0  0
   12.7439   -2.6108    3.7239 C   0  0  0  0  0  0  0  0  0  0  0  0
   11.5160   -1.9412    3.8281 C   0  0  0  0  0  0  0  0  0  0  0  0
   11.5139   -0.5366    4.0253 N   0  0  0  0  0  0  0  0  0  0  0  0
   12.4096    0.0005    4.8933 N   0  0  0  0  0  0  0  0  0  0  0  0
   10.7422    0.4356    3.3955 C   0  0  0  0  0  0  0  0  0  0  0  0
   12.2857    1.3313    4.7559 C   0  0  0  0  0  0  0  0  0  0  0  0
    9.5765    0.2064    2.5324 C   0  0  0  0  0  0  0  0  0  0  0  0
   11.2637    1.6427    3.8291 C   0  0  0  0  0  0  0  0  0  0  0  0
   13.1290    2.3116    5.5263 C   0  0  0  0  0  0  0  0  0  0  0  0
    8.3674    0.8625    2.7998 C   0  0  0  0  0  0  0  0  0  0  0  0
    9.5866   -0.7831    1.5403 C   0  0  0  0  0  0  0  0  0  0  0  0
   12.8468    3.6030    5.2100 F   0  0  0  0  0  0  0  0  0  0  0  0
   12.9756    2.1859    6.8710 F   0  0  0  0  0  0  0  0  0  0  0  0
   14.4573    2.1377    5.2757 F   0  0  0  0  0  0  0  0  0  0  0  0
    7.2233    0.6000    2.0396 C   0  0  0  0  0  0  0  0  0  0  0  0
    8.4438   -1.0471    0.7784 C   0  0  0  0  0  0  0  0  0  0  0  0
    7.2585   -0.3434    1.0091 C   0  0  0  0  0  0  0  0  0  0  0  0
    6.0240   -0.6506    0.2146 C   0  0  0  0  0  0  0  0  0  0  0  0
   11.4403   -7.9755    4.8162 H   0  0  0  0  0  0  0  0  0  0  0  0
   11.0937   -6.4440    5.3715 H   0  0  0  0  0  0  0  0  0  0  0  0
    9.4495   -4.5550    3.4336 H   0  0  0  0  0  0  0  0  0  0  0  0
   13.6652   -4.4938    3.4616 H   0  0  0  0  0  0  0  0  0  0  0  0
    9.4093   -2.1440    3.7646 H   0  0  0  0  0  0  0  0  0  0  0  0
   13.6285   -2.0839    3.7942 H   0  0  0  0  0  0  0  0  0  0  0  0
   10.9650    2.5854    3.5337 H   0  0  0  0  0  0  0  0  0  0  0  0
    8.3206    1.5492    3.5687 H   0  0  0  0  0  0  0  0  0  0  0  0
   10.4487   -1.3241    1.3695 H   0  0  0  0  0  0  0  0  0  0  0  0
    6.3470    1.1064    2.2408 H   0  0  0  0  0  0  0  0  0  0  0  0
    8.4760   -1.7673    0.0400 H   0  0  0  0  0  0  0  0  0  0  0  0
    5.6606    0.2468   -0.2411 H   0  0  0  0  0  0  0  0  0  0  0  0
    5.2729   -1.0507    0.8630 H   0  0  0  0  0  0  0  0  0  0  0  0
    6.2579   -1.3670   -0.5451 H   0  0  0  0  0  0  0  0  0  0  0  0
  1  2  2  0  0  0  0
  1  3  2  0  0  0  0
  1  4  1  0  0  0  0
  1  5  1  0  0  0  0
  4 27  1  0  0  0  0
  4 28  1  0  0  0  0
  5  6  2  0  0  0  0
  5  7  1  0  0  0  0
  6  8  1  0  0  0  0
  6 29  1  0  0  0  0
  7  9  2  0  0  0  0
  7 30  1  0  0  0  0
  8 10  2  0  0  0  0
  8 31  1  0  0  0  0
  9 10  1  0  0  0  0
  9 32  1  0  0  0  0
 10 11  1  0  0  0  0
 11 12  1  0  0  0  0
 11 13  1  0  0  0  0
 12 14  2  0  0  0  0
 13 15  1  0  0  0  0
 13 16  2  0  0  0  0
 14 17  1  0  0  0  0
 14 16  1  0  0  0  0
 15 18  2  0  0  0  0
 15 19  1  0  0  0  0
 16 33  1  0  0  0  0
 17 20  1  0  0  0  0
 17 21  1  0  0  0  0
 17 22  1  0  0  0  0
 18 23  1  0  0  0  0
 18 34  1  0  0  0  0
 19 24  2  0  0  0  0
 19 35  1  0  0  0  0
 23 25  2  0  0  0  0
 23 36  1  0  0  0  0
 24 25  1  0  0  0  0
 24 37  1  0  0  0  0
 25 26  1  0  0  0  0
 26 38  1  0  0  0  0
 26 39  1  0  0  0  0
 26 40  1  0  0  0  0
M  END
>  <Code-name>
N01

>  <Compound>
Celecoxib

>  <Specie>


>  <Reference>


>  <Organism>
COX-2

>  <Smiles>
Cc(cc1)ccc1-c1cc(C(F)(F)F)nn1-c(cc1)ccc1S(N)(=O)=O

>  <MMFF94 Energy>
62.266

>  <Total Molweight>
381.377

>  <Molweight>
381.377

>  <Monoisotopic Mass>
381.075881

>  <cLogP>
2.5888

>  <cLogS>
-4.174

>  <H-Acceptors>
5

>  <H-Donors>
1

>  <Total Surface Area>
259.56

>  <Relative PSA>
0.23767

>  <Polar Surface Area>
86.36

>  <Druglikeness>
-8.1085

>  <Mutagenic>
none

>  <Tumorigenic>
none

>  <Reproductive Effective>
none

>  <Irritant>
none

>  <Nasty Functions>


>  <Shape Index>
0.5

>  <Molecular Flexibility>
0.47398

>  <Molecular Complexity>
0.82757

>  <Fragments>
1

>  <Non-H Atoms>
26

>  <Non-C/H Atoms>
9

>  <Metal-Atoms>
0

>  <Electronegative Atoms>
9

>  <Stereo Centers>
0

>  <Rotatable Bonds>
4

>  <Rings Closures>
3

>  <Small Rings>
3

>  <Aromatic Rings>
3

>  <Aromatic Atoms>
17

>  <sp3-Atoms>
3

>  <Symmetric atoms>
7

>  <Amides>
1

>  <Amines>
0

>  <Alkyl-Amines>
0

>  <Aromatic Amines>
0

>  <Aromatic Nitrogens>
2

>  <Basic Nitrogens>
0

>  <Acidic Oxygens>
0

>  <Stereo Configuration>


> <Gold.Version>
5.8.1

> <Gold.Id.Protein>
ID_2|Prot_COX2_5IKQ_Alig|mol2

> <Gold.Goldscore.Fitness>
73.1038

> <Gold.Goldscore.Internal.Vdw>
3.0665

> <Gold.Goldscore.Internal.Torsion>
-10.1440

> <Gold.Goldscore.External.Vdw>
52.6399

> <Gold.Goldscore.Internal.HBond>
0.0000

> <Gold.Goldscore.External.HBond>
3.0357

> <Gold.Goldscore.Internal.Correction>
-4.7657

> <Gold.Goldscore.Hbonds>
donor molecule, donor type, donor heavy atom, donor atom, acceptor molecule, acceptor atom, score
      P1  H  5176  5185       L1    12  0.22
      L1  H     4    27       P1  2530  0.30
      L1  H     4    28       P1  5131  1.00

> <Gold.Goldscore.Internal.Vdw.Weighted>
3.0665

> <Gold.Goldscore.Internal.Torsion.Weighted>
-10.1440

> <Gold.Goldscore.External.Vdw.Weighted>
72.3799

> <Gold.Goldscore.Internal.HBond.Weighted>
0.0000

> <Gold.Goldscore.External.HBond.Weighted>
3.0357

> <Gold.Goldscore.Internal.Correction.Weighted>
-4.7657

> <Gold.Protein.RotatedTorsions>
[ 5077 5068 5067 5065 ] final   -9.82 input  179.94 | X-H torsion
[ 5157 5152 5151 5148 ] final   48.60 input -179.92 | X-H torsion
[ 5185 5176 5175 5173 ] final  111.89 input -179.99 | X-H torsion
[ 5712 5703 5702 5700 ] final  120.76 input  180.00 | X-H torsion
[ 8036 8031 8030 8027 ] final  174.81 input -179.94 | X-H torsion
[ 2749 2745 2743 2740 ] final    6.29 input  -60.05 | X-H torsion
[ 1366 1361 1360 1357 ] final  -28.14 input  -60.09 | X-H torsion
[ 2556 2551 2550 2547 ] final  -36.14 input   59.97 | X-H torsion

> <Gold.Protein.ActiveResidues>
 PRO86   VAL89   HIS90   LEU93   THR94   ILE112  MET113  TYR115  VAL116  LEU117 
 THR118  SER119  ARG120  SER121  LEU123  ILE124  GLN192  SER194  PHE198  PHE201 
 ALA202  GLN203  PHE205  THR206  PHE209  PHE210  VAL228  ILE341  ILE343  VAL344 
 ILE345  GLU346  ASP347  TYR348  VAL349  GLN350  HIS351  LEU352  SER353  GLY354 
 TYR355  PHE357  LEU359  LYS360  GLU380  PHE381  ASN382  THR383  LEU384  TYR385 
 HIS386  TRP387  LEU390  VAL434  LEU507  ARG513  ALA516  ILE517  PHE518  GLY519 
 GLU520  THR521  MET522  VAL523  GLU524  VAL525  GLY526  ALA527  PRO528  PHE529 
 SER530  LEU531  LYS532  GLY533  LEU534  MET535  COH609 

> <Gold.Protein.RotatedAtoms>
   17.6840    7.7605    2.7312 H   0  0  0  0  0  0  0  0  0  0  0  0  # atno 1366 bound_to 1361
    4.8857   -9.3022    8.1420 H   0  0  0  0  0  0  0  0  0  0  0  0  # atno 2556 bound_to 2551
   -4.1437    0.2213    0.8743 H   0  0  0  0  0  0  0  0  0  0  0  0  # atno 2749 bound_to 2745
    0.9869   -2.6657    4.3050 H   0  0  0  0  0  0  0  0  0  0  0  0  # atno 5077 bound_to 5068
   12.5436   -2.8029    9.1883 H   0  0  0  0  0  0  0  0  0  0  0  0  # atno 5157 bound_to 5152
   15.0440   -0.2643    4.8014 H   0  0  0  0  0  0  0  0  0  0  0  0  # atno 5185 bound_to 5176
    3.0509   -0.4034    2.3906 H   0  0  0  0  0  0  0  0  0  0  0  0  # atno 5712 bound_to 5703
    5.7112    3.7155    3.5287 H   0  0  0  0  0  0  0  0  0  0  0  0  # atno 8036 bound_to 8031
    2.3134   -2.2161    3.7574 LP  0  0  0  0  0  0  0  0  0  0  0  0  # atno 8267 bound_to 5068
    0.9892   -1.2604    3.7696 LP  0  0  0  0  0  0  0  0  0  0  0  0  # atno 8268 bound_to 5068
   11.2119   -2.1217    9.3539 LP  0  0  0  0  0  0  0  0  0  0  0  0  # atno 8279 bound_to 5152
   12.6193   -1.3009    9.2443 LP  0  0  0  0  0  0  0  0  0  0  0  0  # atno 8280 bound_to 5152
   16.2269   -1.1789    4.6509 LP  0  0  0  0  0  0  0  0  0  0  0  0  # atno 8281 bound_to 5176
   16.3645    0.3799    5.1174 LP  0  0  0  0  0  0  0  0  0  0  0  0  # atno 8282 bound_to 5176
    1.8007   -1.0691    2.8930 LP  0  0  0  0  0  0  0  0  0  0  0  0  # atno 8283 bound_to 5703
    1.9092    0.5409    2.6427 LP  0  0  0  0  0  0  0  0  0  0  0  0  # atno 8284 bound_to 5703
    4.6360    4.7119    3.1954 LP  0  0  0  0  0  0  0  0  0  0  0  0  # atno 8309 bound_to 8031
    6.1235    5.1501    3.7072 LP  0  0  0  0  0  0  0  0  0  0  0  0  # atno 8310 bound_to 8031
   -2.9054   -0.5846    1.1582 LP  0  0  0  0  0  0  0  0  0  0  0  0  # atno 8323 bound_to 2745
   -3.3429   -0.1333   -0.3490 LP  0  0  0  0  0  0  0  0  0  0  0  0  # atno 8324 bound_to 2745
   18.7808    6.9540    3.3719 LP  0  0  0  0  0  0  0  0  0  0  0  0  # atno 8335 bound_to 1361
   18.2625    6.6901    1.8460 LP  0  0  0  0  0  0  0  0  0  0  0  0  # atno 8336 bound_to 1361
    4.4837   -8.8364    6.7688 LP  0  0  0  0  0  0  0  0  0  0  0  0  # atno 8342 bound_to 2551
    5.2019  -10.2775    7.0407 LP  0  0  0  0  0  0  0  0  0  0  0  0  # atno 8343 bound_to 2551

