
N04|LMW3_p|sdf|215|dock2
  -GOLD-   61122 5273D 1   1.00000     0.00000

 32 32  0  0  0  0  0  0  0  0  2 V2000
   11.7094   -8.3287    2.0058 O   0  0  0  0  0  0  0  0  0  0  0  0
   12.5356   -7.4311    1.9530 C   0  0  0  0  0  0  0  0  0  0  0  0
   13.1208   -7.1180    0.7774 O   0  5  0  0  0  0  0  0  0  0  0  0
   13.0108   -6.5558    3.0979 C   0  0  1  0  0  0  0  0  0  0  0  0
   12.1878   -5.2860    3.2154 C   0  0  0  0  0  0  0  0  0  0  0  0
   13.0232   -7.3513    4.4052 C   0  0  0  0  0  0  0  0  0  0  0  0
   10.7970   -5.3338    3.0474 C   0  0  0  0  0  0  0  0  0  0  0  0
   12.7873   -4.0489    3.4945 C   0  0  0  0  0  0  0  0  0  0  0  0
   10.0258   -4.1734    3.1514 C   0  0  0  0  0  0  0  0  0  0  0  0
   12.0153   -2.8891    3.5988 C   0  0  0  0  0  0  0  0  0  0  0  0
   10.6276   -2.9398    3.4264 C   0  0  0  0  0  0  0  0  0  0  0  0
    9.7929   -1.6859    3.5338 C   0  0  0  0  0  0  0  0  0  0  0  0
    9.5157   -1.0046    2.1792 C   0  0  0  0  0  0  0  0  0  0  0  0
    8.6631   -1.9244    1.3013 C   0  0  0  0  0  0  0  0  0  0  0  0
    8.8114    0.3442    2.3485 C   0  0  0  0  0  0  0  0  0  0  0  0
   14.0138   -6.2478    2.8881 H   0  0  0  0  0  0  0  0  0  0  0  0
   12.0484   -7.7530    4.5875 H   0  0  0  0  0  0  0  0  0  0  0  0
   13.2999   -6.7062    5.2127 H   0  0  0  0  0  0  0  0  0  0  0  0
   13.7300   -8.1510    4.3293 H   0  0  0  0  0  0  0  0  0  0  0  0
   10.3378   -6.2355    2.8448 H   0  0  0  0  0  0  0  0  0  0  0  0
   13.8097   -3.9949    3.6242 H   0  0  0  0  0  0  0  0  0  0  0  0
    9.0030   -4.2262    3.0244 H   0  0  0  0  0  0  0  0  0  0  0  0
   12.4726   -1.9871    3.8048 H   0  0  0  0  0  0  0  0  0  0  0  0
   10.3087   -0.9901    4.1620 H   0  0  0  0  0  0  0  0  0  0  0  0
    8.8449   -1.9764    3.9360 H   0  0  0  0  0  0  0  0  0  0  0  0
   10.4599   -0.8221    1.7101 H   0  0  0  0  0  0  0  0  0  0  0  0
    8.4106   -1.4174    0.3935 H   0  0  0  0  0  0  0  0  0  0  0  0
    7.7674   -2.1869    1.8243 H   0  0  0  0  0  0  0  0  0  0  0  0
    9.2156   -2.8117    1.0725 H   0  0  0  0  0  0  0  0  0  0  0  0
    7.8793    0.1989    2.8534 H   0  0  0  0  0  0  0  0  0  0  0  0
    8.6323    0.7763    1.3862 H   0  0  0  0  0  0  0  0  0  0  0  0
    9.4305    1.0000    2.9244 H   0  0  0  0  0  0  0  0  0  0  0  0
  1  2  2  0  0  0  0
  2  3  1  0  0  0  0
  2  4  1  0  0  0  0
  4  5  1  0  0  0  0
  4  6  1  0  0  0  0
  4 16  1  0  0  0  0
  5  7  2  0  0  0  0
  5  8  1  0  0  0  0
  6 17  1  0  0  0  0
  6 18  1  0  0  0  0
  6 19  1  0  0  0  0
  7  9  1  0  0  0  0
  7 20  1  0  0  0  0
  8 10  2  0  0  0  0
  8 21  1  0  0  0  0
  9 11  2  0  0  0  0
  9 22  1  0  0  0  0
 10 11  1  0  0  0  0
 10 23  1  0  0  0  0
 11 12  1  0  0  0  0
 12 13  1  0  0  0  0
 12 24  1  0  0  0  0
 12 25  1  0  0  0  0
 13 14  1  0  0  0  0
 13 15  1  0  0  0  0
 13 26  1  0  0  0  0
 14 27  1  0  0  0  0
 14 28  1  0  0  0  0
 14 29  1  0  0  0  0
 15 30  1  0  0  0  0
 15 31  1  0  0  0  0
 15 32  1  0  0  0  0
M  CHG  1   3  -1
M  END
>  <Code-name>
N04

>  <Compound>
Ibuprofen

>  <Specie>


>  <Reference>


>  <Organism>
COX12

>  <Smiles>
CC(C)Cc1ccc([C@@H](C)C(O)=O)cc1

>  <MMFF94 Energy>
23.793

>  <Total Molweight>
206.284

>  <Molweight>
206.284

>  <Monoisotopic Mass>
206.130680

>  <cLogP>
3.0025

>  <cLogS>
-2.895

>  <H-Acceptors>
2

>  <H-Donors>
1

>  <Total Surface Area>
172.9

>  <Relative PSA>
0.15119

>  <Polar Surface Area>
37.3

>  <Druglikeness>
0.0805

>  <Mutagenic>
none

>  <Tumorigenic>
none

>  <Reproductive Effective>
none

>  <Irritant>
none

>  <Nasty Functions>


>  <Shape Index>
0.66667

>  <Molecular Flexibility>
0.62095

>  <Molecular Complexity>
0.56446

>  <Fragments>
1

>  <Non-H Atoms>
15

>  <Non-C/H Atoms>
2

>  <Metal-Atoms>
0

>  <Electronegative Atoms>
2

>  <Stereo Centers>
1

>  <Rotatable Bonds>
4

>  <Rings Closures>
1

>  <Small Rings>
1

>  <Aromatic Rings>
1

>  <Aromatic Atoms>
6

>  <sp3-Atoms>
7

>  <Symmetric atoms>
3

>  <Amides>
0

>  <Amines>
0

>  <Alkyl-Amines>
0

>  <Aromatic Amines>
0

>  <Aromatic Nitrogens>
0

>  <Basic Nitrogens>
0

>  <Acidic Oxygens>
1

>  <Stereo Configuration>
this enantiomer

> <Gold.Version>
5.8.1

> <Gold.Id.Protein>
ID_2|Prot_COX2_5IKQ_Alig|mol2

> <Gold.Goldscore.Fitness>
53.7119

> <Gold.Goldscore.Internal.Vdw>
-2.2589

> <Gold.Goldscore.Internal.Torsion>
-2.0659

> <Gold.Goldscore.External.Vdw>
38.2927

> <Gold.Goldscore.Internal.HBond>
0.0000

> <Gold.Goldscore.External.HBond>
2.4747

> <Gold.Goldscore.Internal.Correction>
-2.9094

> <Gold.Goldscore.Hbonds>
donor molecule, donor type, donor heavy atom, donor atom, acceptor molecule, acceptor atom, score
      P1  H  7855  7866       L1     1  0.41

> <Gold.Goldscore.Internal.Vdw.Weighted>
-2.2589

> <Gold.Goldscore.Internal.Torsion.Weighted>
-2.0659

> <Gold.Goldscore.External.Vdw.Weighted>
52.6525

> <Gold.Goldscore.Internal.HBond.Weighted>
0.0000

> <Gold.Goldscore.External.HBond.Weighted>
2.4747

> <Gold.Goldscore.Internal.Correction.Weighted>
-2.9094

> <Gold.Protein.RotatedTorsions>
[ 5077 5068 5067 5065 ] final   20.06 input  179.94 | X-H torsion
[ 5157 5152 5151 5148 ] final -127.40 input -179.92 | X-H torsion
[ 5185 5176 5175 5173 ] final   89.91 input -179.99 | X-H torsion
[ 5712 5703 5702 5700 ] final  137.00 input  180.00 | X-H torsion
[ 8036 8031 8030 8027 ] final -175.86 input -179.94 | X-H torsion
[ 2749 2745 2743 2740 ] final   38.59 input  -60.05 | X-H torsion
[ 1366 1361 1360 1357 ] final   45.81 input  -60.09 | X-H torsion
[ 2556 2551 2550 2547 ] final  -39.55 input   59.97 | X-H torsion

> <Gold.Protein.ActiveResidues>
 PRO86   VAL89   HIS90   LEU93   THR94   ILE112  MET113  TYR115  VAL116  LEU117 
 THR118  SER119  ARG120  SER121  LEU123  ILE124  GLN192  SER194  PHE198  PHE201 
 ALA202  GLN203  PHE205  THR206  PHE209  PHE210  VAL228  ILE341  ILE343  VAL344 
 ILE345  GLU346  ASP347  TYR348  VAL349  GLN350  HIS351  LEU352  SER353  GLY354 
 TYR355  PHE357  LEU359  LYS360  GLU380  PHE381  ASN382  THR383  LEU384  TYR385 
 HIS386  TRP387  LEU390  VAL434  LEU507  ARG513  ALA516  ILE517  PHE518  GLY519 
 GLU520  THR521  MET522  VAL523  GLU524  VAL525  GLY526  ALA527  PRO528  PHE529 
 SER530  LEU531  LYS532  GLY533  LEU534  MET535  COH609 

> <Gold.Protein.RotatedAtoms>
   17.8355    7.2267    1.9592 H   0  0  0  0  0  0  0  0  0  0  0  0  # atno 1366 bound_to 1361
    4.8649   -9.2610    8.1328 H   0  0  0  0  0  0  0  0  0  0  0  0  # atno 2556 bound_to 2551
   -4.1560    0.2854    0.4398 H   0  0  0  0  0  0  0  0  0  0  0  0  # atno 2749 bound_to 2745
    0.7242   -2.3572    4.2664 H   0  0  0  0  0  0  0  0  0  0  0  0  # atno 5077 bound_to 5068
   11.7064   -1.4654    9.2755 H   0  0  0  0  0  0  0  0  0  0  0  0  # atno 5157 bound_to 5152
   15.0757   -0.5525    4.7227 H   0  0  0  0  0  0  0  0  0  0  0  0  # atno 5185 bound_to 5176
    3.0354   -0.1827    2.3651 H   0  0  0  0  0  0  0  0  0  0  0  0  # atno 5712 bound_to 5703
    5.8250    3.7598    3.5678 H   0  0  0  0  0  0  0  0  0  0  0  0  # atno 8036 bound_to 8031
    2.1650   -2.6409    3.9422 LP  0  0  0  0  0  0  0  0  0  0  0  0  # atno 8267 bound_to 5068
    1.4522   -1.2050    3.6310 LP  0  0  0  0  0  0  0  0  0  0  0  0  # atno 8268 bound_to 5068
   13.0898   -2.0525    9.1953 LP  0  0  0  0  0  0  0  0  0  0  0  0  # atno 8279 bound_to 5152
   11.7428   -2.9698    9.2986 LP  0  0  0  0  0  0  0  0  0  0  0  0  # atno 8280 bound_to 5152
   16.5149   -0.9849    4.7452 LP  0  0  0  0  0  0  0  0  0  0  0  0  # atno 8281 bound_to 5176
   16.0384    0.5320    5.1175 LP  0  0  0  0  0  0  0  0  0  0  0  0  # atno 8282 bound_to 5176
    2.0310   -1.1936    2.8426 LP  0  0  0  0  0  0  0  0  0  0  0  0  # atno 8283 bound_to 5703
    1.6975    0.4005    2.7236 LP  0  0  0  0  0  0  0  0  0  0  0  0  # atno 8284 bound_to 5703
    4.6109    4.5607    3.1878 LP  0  0  0  0  0  0  0  0  0  0  0  0  # atno 8309 bound_to 8031
    6.0121    5.2481    3.6679 LP  0  0  0  0  0  0  0  0  0  0  0  0  # atno 8310 bound_to 8031
   -3.2915   -0.4005    1.4624 LP  0  0  0  0  0  0  0  0  0  0  0  0  # atno 8323 bound_to 2745
   -2.9420   -0.3942   -0.1328 LP  0  0  0  0  0  0  0  0  0  0  0  0  # atno 8324 bound_to 2745
   17.9640    7.7419    3.3671 LP  0  0  0  0  0  0  0  0  0  0  0  0  # atno 8335 bound_to 1361
   18.8981    6.5408    2.7743 LP  0  0  0  0  0  0  0  0  0  0  0  0  # atno 8336 bound_to 1361
    4.4936   -8.8728    6.7273 LP  0  0  0  0  0  0  0  0  0  0  0  0  # atno 8342 bound_to 2551
    5.2169  -10.2904    7.0932 LP  0  0  0  0  0  0  0  0  0  0  0  0  # atno 8343 bound_to 2551

