
N06|LMW3_p|sdf|217|dock109
  -GOLD-   61122 5413D 1   1.00000     0.00000

 32 33  0  0  0  0  0  0  0  0  2 V2000
    7.4973    2.2720    2.4378 O   0  0  0  0  0  0  0  0  0  0  0  0
    8.1122    1.2136    2.3345 C   0  0  0  0  0  0  0  0  0  0  0  0
    9.2254    0.9187    3.2748 C   0  0  0  0  0  0  0  0  0  0  0  0
    7.7260    0.2611    1.2640 C   0  0  0  0  0  0  0  0  0  0  0  0
   10.0879    1.9634    3.6349 C   0  0  0  0  0  0  0  0  0  0  0  0
    9.4019   -0.3514    3.8330 C   0  0  0  0  0  0  0  0  0  0  0  0
    6.4879    0.4321    0.6343 C   0  0  0  0  0  0  0  0  0  0  0  0
    8.5865   -0.7608    0.8453 C   0  0  0  0  0  0  0  0  0  0  0  0
   11.1579    1.7418    4.5182 C   0  0  0  0  0  0  0  0  0  0  0  0
   10.4556   -0.5808    4.7173 C   0  0  0  0  0  0  0  0  0  0  0  0
    6.0970   -0.4370   -0.3849 C   0  0  0  0  0  0  0  0  0  0  0  0
    8.1909   -1.6279   -0.1753 C   0  0  0  0  0  0  0  0  0  0  0  0
   11.3288    0.4557    5.0541 C   0  0  0  0  0  0  0  0  0  0  0  0
   12.1071    2.8639    4.9199 C   0  0  2  0  0  0  0  0  0  0  0  0
    6.9464   -1.4685   -0.7853 C   0  0  0  0  0  0  0  0  0  0  0  0
   13.5589    2.4054    4.9706 C   0  0  0  0  0  0  0  0  0  0  0  0
   11.6738    3.5164    6.2365 C   0  0  0  0  0  0  0  0  0  0  0  0
   14.4202    2.7406    5.7672 O   0  0  0  0  0  0  0  0  0  0  0  0
   13.8490    1.4646    4.0460 O   0  5  0  0  0  0  0  0  0  0  0  0
    9.9352    2.9072    3.2463 H   0  0  0  0  0  0  0  0  0  0  0  0
    8.7538   -1.1171    3.5910 H   0  0  0  0  0  0  0  0  0  0  0  0
    5.8639    1.2013    0.9238 H   0  0  0  0  0  0  0  0  0  0  0  0
    9.5110   -0.8730    1.2898 H   0  0  0  0  0  0  0  0  0  0  0  0
   10.5906   -1.5196    5.1240 H   0  0  0  0  0  0  0  0  0  0  0  0
    5.1798   -0.3167   -0.8423 H   0  0  0  0  0  0  0  0  0  0  0  0
    8.8199   -2.3876   -0.4787 H   0  0  0  0  0  0  0  0  0  0  0  0
   12.1089    0.2740    5.7048 H   0  0  0  0  0  0  0  0  0  0  0  0
   12.0495    3.6086    4.1538 H   0  0  0  0  0  0  0  0  0  0  0  0
    6.6535   -2.1151   -1.5344 H   0  0  0  0  0  0  0  0  0  0  0  0
   10.6483    3.8135    6.1667 H   0  0  0  0  0  0  0  0  0  0  0  0
   12.2821    4.3761    6.4255 H   0  0  0  0  0  0  0  0  0  0  0  0
   11.7885    2.8154    7.0367 H   0  0  0  0  0  0  0  0  0  0  0  0
  1  2  2  0  0  0  0
  2  3  1  0  0  0  0
  2  4  1  0  0  0  0
  3  5  2  0  0  0  0
  3  6  1  0  0  0  0
  4  7  2  0  0  0  0
  4  8  1  0  0  0  0
  5  9  1  0  0  0  0
  5 20  1  0  0  0  0
  6 10  2  0  0  0  0
  6 21  1  0  0  0  0
  7 11  1  0  0  0  0
  7 22  1  0  0  0  0
  8 12  2  0  0  0  0
  8 23  1  0  0  0  0
  9 13  2  0  0  0  0
  9 14  1  0  0  0  0
 10 13  1  0  0  0  0
 10 24  1  0  0  0  0
 11 15  2  0  0  0  0
 11 25  1  0  0  0  0
 12 15  1  0  0  0  0
 12 26  1  0  0  0  0
 13 27  1  0  0  0  0
 14 16  1  0  0  0  0
 14 17  1  0  0  0  0
 14 28  1  0  0  0  0
 15 29  1  0  0  0  0
 16 18  2  0  0  0  0
 16 19  1  0  0  0  0
 17 30  1  0  0  0  0
 17 31  1  0  0  0  0
 17 32  1  0  0  0  0
M  CHG  1  19  -1
M  END
>  <Code-name>
N06

>  <Compound>
ketoprofen

>  <Specie>


>  <Reference>


>  <Organism>
COX12

>  <Smiles>
C[C@@H](C(O)=O)c1cccc(C(c2ccccc2)=O)c1

>  <MMFF94 Energy>
72.382

>  <Total Molweight>
254.284

>  <Molweight>
254.284

>  <Monoisotopic Mass>
254.094295

>  <cLogP>
2.7003

>  <cLogS>
-4.062

>  <H-Acceptors>
3

>  <H-Donors>
1

>  <Total Surface Area>
199.63

>  <Relative PSA>
0.19626

>  <Polar Surface Area>
54.37

>  <Druglikeness>
0.41431

>  <Mutagenic>
none

>  <Tumorigenic>
none

>  <Reproductive Effective>
none

>  <Irritant>
none

>  <Nasty Functions>


>  <Shape Index>
0.57895

>  <Molecular Flexibility>
0.55416

>  <Molecular Complexity>
0.66621

>  <Fragments>
1

>  <Non-H Atoms>
19

>  <Non-C/H Atoms>
3

>  <Metal-Atoms>
0

>  <Electronegative Atoms>
3

>  <Stereo Centers>
1

>  <Rotatable Bonds>
4

>  <Rings Closures>
2

>  <Small Rings>
2

>  <Aromatic Rings>
2

>  <Aromatic Atoms>
12

>  <sp3-Atoms>
3

>  <Symmetric atoms>
2

>  <Amides>
0

>  <Amines>
0

>  <Alkyl-Amines>
0

>  <Aromatic Amines>
0

>  <Aromatic Nitrogens>
0

>  <Basic Nitrogens>
0

>  <Acidic Oxygens>
1

>  <Stereo Configuration>
this enantiomer

> <Gold.Version>
5.8.1

> <Gold.Id.Protein>
ID_2|Prot_COX2_5IKQ_Alig|mol2

> <Gold.Goldscore.Fitness>
60.9361

> <Gold.Goldscore.Internal.Vdw>
0.4046

> <Gold.Goldscore.Internal.Torsion>
-4.7365

> <Gold.Goldscore.External.Vdw>
40.6643

> <Gold.Goldscore.Internal.HBond>
0.0000

> <Gold.Goldscore.External.HBond>
5.7408

> <Gold.Goldscore.Internal.Correction>
-3.6138

> <Gold.Goldscore.Hbonds>
donor molecule, donor type, donor heavy atom, donor atom, acceptor molecule, acceptor atom, score
      P1  H  5176  5185       L1    19  0.96

> <Gold.Goldscore.Internal.Vdw.Weighted>
0.4046

> <Gold.Goldscore.Internal.Torsion.Weighted>
-4.7365

> <Gold.Goldscore.External.Vdw.Weighted>
55.9134

> <Gold.Goldscore.Internal.HBond.Weighted>
0.0000

> <Gold.Goldscore.External.HBond.Weighted>
5.7408

> <Gold.Goldscore.Internal.Correction.Weighted>
-3.6138

> <Gold.Protein.RotatedTorsions>
[ 5077 5068 5067 5065 ] final -115.79 input  179.94 | X-H torsion
[ 5157 5152 5151 5148 ] final -144.17 input -179.92 | X-H torsion
[ 5185 5176 5175 5173 ] final  135.92 input -179.99 | X-H torsion
[ 5712 5703 5702 5700 ] final  107.61 input  180.00 | X-H torsion
[ 8036 8031 8030 8027 ] final  169.16 input -179.94 | X-H torsion
[ 2749 2745 2743 2740 ] final -131.23 input  -60.05 | X-H torsion
[ 1366 1361 1360 1357 ] final   11.02 input  -60.09 | X-H torsion
[ 2556 2551 2550 2547 ] final  120.68 input   59.97 | X-H torsion

> <Gold.Protein.ActiveResidues>
 PRO86   VAL89   HIS90   LEU93   THR94   ILE112  MET113  TYR115  VAL116  LEU117 
 THR118  SER119  ARG120  SER121  LEU123  ILE124  GLN192  SER194  PHE198  PHE201 
 ALA202  GLN203  PHE205  THR206  PHE209  PHE210  VAL228  ILE341  ILE343  VAL344 
 ILE345  GLU346  ASP347  TYR348  VAL349  GLN350  HIS351  LEU352  SER353  GLY354 
 TYR355  PHE357  LEU359  LYS360  GLU380  PHE381  ASN382  THR383  LEU384  TYR385 
 HIS386  TRP387  LEU390  VAL434  LEU507  ARG513  ALA516  ILE517  PHE518  GLY519 
 GLU520  THR521  MET522  VAL523  GLU524  VAL525  GLY526  ALA527  PRO528  PHE529 
 SER530  LEU531  LYS532  GLY533  LEU534  MET535  COH609 

> <Gold.Protein.RotatedAtoms>
   17.6475    7.5523    2.2455 H   0  0  0  0  0  0  0  0  0  0  0  0  # atno 1366 bound_to 1361
    4.9231   -9.9050    6.7162 H   0  0  0  0  0  0  0  0  0  0  0  0  # atno 2556 bound_to 2551
   -2.8694   -0.5163    0.8615 H   0  0  0  0  0  0  0  0  0  0  0  0  # atno 2749 bound_to 2745
    2.1409   -2.3584    3.9011 H   0  0  0  0  0  0  0  0  0  0  0  0  # atno 5077 bound_to 5068
   11.9134   -1.3650    9.2591 H   0  0  0  0  0  0  0  0  0  0  0  0  # atno 5157 bound_to 5152
   15.1385    0.0341    4.8998 H   0  0  0  0  0  0  0  0  0  0  0  0  # atno 5185 bound_to 5176
    3.0192   -0.5780    2.4235 H   0  0  0  0  0  0  0  0  0  0  0  0  # atno 5712 bound_to 5703
    5.6395    3.6983    3.5040 H   0  0  0  0  0  0  0  0  0  0  0  0  # atno 8036 bound_to 8031
    1.1982   -1.2048    3.6964 LP  0  0  0  0  0  0  0  0  0  0  0  0  # atno 8267 bound_to 5068
    0.7225   -2.6397    4.3141 LP  0  0  0  0  0  0  0  0  0  0  0  0  # atno 8268 bound_to 5068
   13.0691   -2.3269    9.1937 LP  0  0  0  0  0  0  0  0  0  0  0  0  # atno 8279 bound_to 5152
   11.5159   -2.8153    9.3198 LP  0  0  0  0  0  0  0  0  0  0  0  0  # atno 8280 bound_to 5152
   15.8475   -1.2517    4.5792 LP  0  0  0  0  0  0  0  0  0  0  0  0  # atno 8281 bound_to 5176
   16.6304    0.0944    5.0709 LP  0  0  0  0  0  0  0  0  0  0  0  0  # atno 8282 bound_to 5176
    1.6431   -0.9236    2.9193 LP  0  0  0  0  0  0  0  0  0  0  0  0  # atno 8283 bound_to 5703
    2.1048    0.6049    2.5769 LP  0  0  0  0  0  0  0  0  0  0  0  0  # atno 8284 bound_to 5703
    4.6625    4.8007    3.2038 LP  0  0  0  0  0  0  0  0  0  0  0  0  # atno 8309 bound_to 8031
    6.1831    5.0818    3.7284 LP  0  0  0  0  0  0  0  0  0  0  0  0  # atno 8310 bound_to 8031
   -3.5940    0.0120   -0.3464 LP  0  0  0  0  0  0  0  0  0  0  0  0  # atno 8323 bound_to 2745
   -4.1805    0.1535    1.1711 LP  0  0  0  0  0  0  0  0  0  0  0  0  # atno 8324 bound_to 2745
   18.3905    7.4196    3.5472 LP  0  0  0  0  0  0  0  0  0  0  0  0  # atno 8335 bound_to 1361
   18.6966    6.4737    2.2517 LP  0  0  0  0  0  0  0  0  0  0  0  0  # atno 8336 bound_to 1361
    5.1717   -9.7892    8.1957 LP  0  0  0  0  0  0  0  0  0  0  0  0  # atno 8342 bound_to 2551
    4.4693   -8.6035    7.3197 LP  0  0  0  0  0  0  0  0  0  0  0  0  # atno 8343 bound_to 2551

