
N08|LMW3_p|sdf|219|dock4
  -GOLD-   61122 6283D 1   1.00000     0.00000

 35 37  0  0  0  0  0  0  0  0  2 V2000
    8.5016   -0.4627    4.2126 S   0  0  0  0  0  0  0  0  0  0  0  0
    8.6479   -0.9371    5.5712 O   0  0  0  0  0  0  0  0  0  0  0  0
    7.2000   -0.3029    3.5990 O   0  0  0  0  0  0  0  0  0  0  0  0
    9.4383   -1.4685    3.1899 N   0  0  0  0  0  0  0  0  0  0  0  0
    9.3648    1.0633    4.0786 C   0  0  0  0  0  0  0  0  0  0  0  0
   10.8348   -1.4678    3.5772 C   0  0  0  0  0  0  0  0  0  0  0  0
    9.1930   -1.2720    1.7364 C   0  0  0  0  0  0  0  0  0  0  0  0
   10.7505    1.0002    3.8998 C   0  0  0  0  0  0  0  0  0  0  0  0
    8.6649    2.2726    4.1035 C   0  0  0  0  0  0  0  0  0  0  0  0
   11.4527   -0.3016    3.8662 C   0  0  0  0  0  0  0  0  0  0  0  0
   11.5690   -2.7778    3.5797 C   0  0  0  0  0  0  0  0  0  0  0  0
   11.4415    2.2134    3.7787 C   0  0  0  0  0  0  0  0  0  0  0  0
    9.3723    3.4641    3.9717 C   0  0  0  0  0  0  0  0  0  0  0  0
   12.8042   -0.2152    4.1651 O   0  5  0  0  0  0  0  0  0  0  0  0
   12.7815   -2.7978    3.3899 O   0  0  0  0  0  0  0  0  0  0  0  0
   10.7361   -3.8339    3.8398 N   0  0  0  0  0  0  0  0  0  0  0  0
   10.7581    3.4346    3.8129 C   0  0  0  0  0  0  0  0  0  0  0  0
   11.1670   -5.1250    3.8017 C   0  0  0  0  0  0  0  0  0  0  0  0
   12.5029   -5.4532    4.8100 S   0  0  0  0  0  0  0  0  0  0  0  0
   10.6334   -6.1466    3.1849 N   0  0  0  0  0  0  0  0  0  0  0  0
   12.4318   -7.1012    4.3344 C   0  0  0  0  0  0  0  0  0  0  0  0
   11.3718   -7.2790    3.4672 C   0  0  0  0  0  0  0  0  0  0  0  0
   13.4118   -8.0904    4.8482 C   0  0  0  0  0  0  0  0  0  0  0  0
    9.4936   -0.2846    1.4543 H   0  0  0  0  0  0  0  0  0  0  0  0
    8.1510   -1.4002    1.5301 H   0  0  0  0  0  0  0  0  0  0  0  0
    9.7579   -1.9897    1.1791 H   0  0  0  0  0  0  0  0  0  0  0  0
    7.6394    2.2822    4.2179 H   0  0  0  0  0  0  0  0  0  0  0  0
   12.4670    2.2064    3.6630 H   0  0  0  0  0  0  0  0  0  0  0  0
    8.8729    4.3670    3.9913 H   0  0  0  0  0  0  0  0  0  0  0  0
    9.7941   -3.6532    4.0617 H   0  0  0  0  0  0  0  0  0  0  0  0
   11.2825    4.3185    3.7200 H   0  0  0  0  0  0  0  0  0  0  0  0
   11.1460   -8.1986    3.0567 H   0  0  0  0  0  0  0  0  0  0  0  0
   14.0913   -8.3584    4.0663 H   0  0  0  0  0  0  0  0  0  0  0  0
   12.8935   -8.9637    5.1854 H   0  0  0  0  0  0  0  0  0  0  0  0
   13.9569   -7.6621    5.6633 H   0  0  0  0  0  0  0  0  0  0  0  0
  1  2  2  0  0  0  0
  1  3  2  0  0  0  0
  1  4  1  0  0  0  0
  1  5  1  0  0  0  0
  4  6  1  0  0  0  0
  4  7  1  0  0  0  0
  5  8  2  0  0  0  0
  5  9  1  0  0  0  0
  6 10  2  0  0  0  0
  6 11  1  0  0  0  0
  7 24  1  0  0  0  0
  7 25  1  0  0  0  0
  7 26  1  0  0  0  0
  8 12  1  0  0  0  0
  8 10  1  0  0  0  0
  9 13  2  0  0  0  0
  9 27  1  0  0  0  0
 10 14  1  0  0  0  0
 11 15  2  0  0  0  0
 11 16  1  0  0  0  0
 12 17  2  0  0  0  0
 12 28  1  0  0  0  0
 13 17  1  0  0  0  0
 13 29  1  0  0  0  0
 16 18  1  0  0  0  0
 16 30  1  0  0  0  0
 17 31  1  0  0  0  0
 18 19  1  0  0  0  0
 18 20  2  0  0  0  0
 19 21  1  0  0  0  0
 20 22  1  0  0  0  0
 21 23  1  0  0  0  0
 21 22  2  0  0  0  0
 22 32  1  0  0  0  0
 23 33  1  0  0  0  0
 23 34  1  0  0  0  0
 23 35  1  0  0  0  0
M  CHG  1  14  -1
M  END
>  <Code-name>
N08

>  <Compound>
Meloxicam

>  <Specie>


>  <Reference>


>  <Organism>
COX-2

>  <Smiles>
Cc1cnc(NC(C(N(C)S(c2c3cccc2)(=O)=O)=C3O)=O)s1

>  <MMFF94 Energy>
-16.794

>  <Total Molweight>
351.406

>  <Molweight>
351.406

>  <Monoisotopic Mass>
351.034747

>  <cLogP>
1.9072

>  <cLogS>
-2.641

>  <H-Acceptors>
7

>  <H-Donors>
2

>  <Total Surface Area>
236.1

>  <Relative PSA>
0.42804

>  <Polar Surface Area>
136.22

>  <Druglikeness>
5.7572

>  <Mutagenic>
none

>  <Tumorigenic>
none

>  <Reproductive Effective>
none

>  <Irritant>
none

>  <Nasty Functions>
limit! thiazol-2-ylamine

>  <Shape Index>
0.52174

>  <Molecular Flexibility>
0.19702

>  <Molecular Complexity>
0.91408

>  <Fragments>
1

>  <Non-H Atoms>
23

>  <Non-C/H Atoms>
9

>  <Metal-Atoms>
0

>  <Electronegative Atoms>
9

>  <Stereo Centers>
0

>  <Rotatable Bonds>
2

>  <Rings Closures>
3

>  <Small Rings>
3

>  <Aromatic Rings>
2

>  <Aromatic Atoms>
11

>  <sp3-Atoms>
4

>  <Symmetric atoms>
1

>  <Amides>
2

>  <Amines>
0

>  <Alkyl-Amines>
0

>  <Aromatic Amines>
0

>  <Aromatic Nitrogens>
1

>  <Basic Nitrogens>
0

>  <Acidic Oxygens>
0

>  <Stereo Configuration>


> <Gold.Version>
5.8.1

> <Gold.Id.Protein>
ID_2|Prot_COX2_5IKQ_Alig|mol2

> <Gold.Goldscore.Fitness>
62.2139

> <Gold.Goldscore.Internal.Vdw>
1.7628

> <Gold.Goldscore.Internal.Torsion>
-3.1913

> <Gold.Goldscore.External.Vdw>
42.2985

> <Gold.Goldscore.Internal.HBond>
0.0000

> <Gold.Goldscore.External.HBond>
5.8449

> <Gold.Goldscore.Internal.Correction>
0.3629

> <Gold.Goldscore.Hbonds>
donor molecule, donor type, donor heavy atom, donor atom, acceptor molecule, acceptor atom, score
      P1  H  5176  5185       L1    14  0.97

> <Gold.Goldscore.Internal.Vdw.Weighted>
1.7628

> <Gold.Goldscore.Internal.Torsion.Weighted>
-3.1913

> <Gold.Goldscore.External.Vdw.Weighted>
58.1605

> <Gold.Goldscore.Internal.HBond.Weighted>
0.0000

> <Gold.Goldscore.External.HBond.Weighted>
5.8449

> <Gold.Goldscore.Internal.Correction.Weighted>
0.3629

> <Gold.Protein.RotatedTorsions>
[ 5077 5068 5067 5065 ] final  -83.48 input  179.94 | X-H torsion
[ 5157 5152 5151 5148 ] final   32.94 input -179.92 | X-H torsion
[ 5185 5176 5175 5173 ] final  106.15 input -179.99 | X-H torsion
[ 5712 5703 5702 5700 ] final  125.34 input  180.00 | X-H torsion
[ 8036 8031 8030 8027 ] final  -99.53 input -179.94 | X-H torsion
[ 2749 2745 2743 2740 ] final   59.84 input  -60.05 | X-H torsion
[ 1366 1361 1360 1357 ] final -121.01 input  -60.09 | X-H torsion
[ 2556 2551 2550 2547 ] final  -18.86 input   59.97 | X-H torsion

> <Gold.Protein.ActiveResidues>
 PRO86   VAL89   HIS90   LEU93   THR94   ILE112  MET113  TYR115  VAL116  LEU117 
 THR118  SER119  ARG120  SER121  LEU123  ILE124  GLN192  SER194  PHE198  PHE201 
 ALA202  GLN203  PHE205  THR206  PHE209  PHE210  VAL228  ILE341  ILE343  VAL344 
 ILE345  GLU346  ASP347  TYR348  VAL349  GLN350  HIS351  LEU352  SER353  GLY354 
 TYR355  PHE357  LEU359  LYS360  GLU380  PHE381  ASN382  THR383  LEU384  TYR385 
 HIS386  TRP387  LEU390  VAL434  LEU507  ARG513  ALA516  ILE517  PHE518  GLY519 
 GLU520  THR521  MET522  VAL523  GLU524  VAL525  GLY526  ALA527  PRO528  PHE529 
 SER530  LEU531  LYS532  GLY533  LEU534  MET535  COH609 

> <Gold.Protein.RotatedAtoms>
   18.5044    7.2914    3.3784 H   0  0  0  0  0  0  0  0  0  0  0  0  # atno 1366 bound_to 1361
    4.9866   -9.5171    8.1463 H   0  0  0  0  0  0  0  0  0  0  0  0  # atno 2556 bound_to 2551
   -4.0496    0.2590    0.1700 H   0  0  0  0  0  0  0  0  0  0  0  0  # atno 2749 bound_to 2745
    1.9047   -2.6855    4.0749 H   0  0  0  0  0  0  0  0  0  0  0  0  # atno 5077 bound_to 5068
   12.3451   -2.8848    9.2042 H   0  0  0  0  0  0  0  0  0  0  0  0  # atno 5157 bound_to 5152
   15.0412   -0.3400    4.7792 H   0  0  0  0  0  0  0  0  0  0  0  0  # atno 5185 bound_to 5176
    3.0526   -0.3411    2.3816 H   0  0  0  0  0  0  0  0  0  0  0  0  # atno 5712 bound_to 5703
    6.2442    4.6284    3.7065 H   0  0  0  0  0  0  0  0  0  0  0  0  # atno 8036 bound_to 8031
    1.7073   -1.2759    3.5896 LP  0  0  0  0  0  0  0  0  0  0  0  0  # atno 8267 bound_to 5068
    0.4963   -2.1768    4.2129 LP  0  0  0  0  0  0  0  0  0  0  0  0  # atno 8268 bound_to 5068
   11.2466   -1.8670    9.3541 LP  0  0  0  0  0  0  0  0  0  0  0  0  # atno 8279 bound_to 5152
   12.8222   -1.4576    9.2252 LP  0  0  0  0  0  0  0  0  0  0  0  0  # atno 8280 bound_to 5152
   16.3096   -1.1391    4.6734 LP  0  0  0  0  0  0  0  0  0  0  0  0  # atno 8281 bound_to 5176
   16.2851    0.4310    5.1215 LP  0  0  0  0  0  0  0  0  0  0  0  0  # atno 8282 bound_to 5176
    1.8623   -1.1109    2.8807 LP  0  0  0  0  0  0  0  0  0  0  0  0  # atno 8283 bound_to 5703
    1.8454    0.5078    2.6658 LP  0  0  0  0  0  0  0  0  0  0  0  0  # atno 8284 bound_to 5703
    5.2083    3.5824    3.4020 LP  0  0  0  0  0  0  0  0  0  0  0  0  # atno 8309 bound_to 8031
    4.9118    5.1842    3.2873 LP  0  0  0  0  0  0  0  0  0  0  0  0  # atno 8310 bound_to 8031
   -3.5919   -0.2332    1.5159 LP  0  0  0  0  0  0  0  0  0  0  0  0  # atno 8323 bound_to 2745
   -2.7690   -0.5299    0.1369 LP  0  0  0  0  0  0  0  0  0  0  0  0  # atno 8324 bound_to 2745
   18.5779    6.5098    2.0947 LP  0  0  0  0  0  0  0  0  0  0  0  0  # atno 8335 bound_to 1361
   17.4842    7.6955    2.3489 LP  0  0  0  0  0  0  0  0  0  0  0  0  # atno 8336 bound_to 1361
    4.4555   -8.6879    7.0086 LP  0  0  0  0  0  0  0  0  0  0  0  0  # atno 8342 bound_to 2551
    5.1095  -10.1690    6.7957 LP  0  0  0  0  0  0  0  0  0  0  0  0  # atno 8343 bound_to 2551

