
N11|LMW3_p|sdf|222|dock1
  -GOLD-   61122 6313D 1   1.00000     0.00000

 33 34  0  0  0  0  0  0  0  0  3 V2000
   11.7896   -5.6225    3.7408 S   0  0  0  0  0  0  0  0  0  0  0  0
   12.3643   -5.6604    5.0673 O   0  0  0  0  0  0  0  0  0  0  0  0
   12.6139   -5.5293    2.5557 O   0  0  0  0  0  0  0  0  0  0  0  0
   10.6656   -4.3532    3.6212 N   0  0  0  0  0  0  0  0  0  0  0  0
   10.7160   -7.0262    3.5438 C   0  0  0  0  0  0  0  0  0  0  0  0
   11.2032   -3.0296    3.7396 C   0  0  0  0  0  0  0  0  0  0  0  0
   10.3548   -1.9149    3.6543 C   0  0  0  0  0  0  0  0  0  0  0  0
   12.5835   -2.8524    3.8475 C   0  0  0  0  0  0  0  0  0  0  0  0
    8.9968   -2.1449    3.5745 O   0  0  0  0  0  0  0  0  0  0  0  0
   10.8766   -0.6198    3.7324 C   0  0  0  0  0  0  0  0  0  0  0  0
   13.1183   -1.5623    3.9047 C   0  0  0  0  0  0  0  0  0  0  0  0
    8.3364   -1.5902    2.5017 C   0  0  0  0  0  0  0  0  0  0  0  0
   12.2620   -0.4514    3.8499 C   0  0  0  0  0  0  0  0  0  0  0  0
    8.5505   -2.1737    1.2526 C   0  0  0  0  0  0  0  0  0  0  0  0
    7.5363   -0.4514    2.6203 C   0  0  0  0  0  0  0  0  0  0  0  0
   12.8252    0.9027    3.9246 N   0  3  0  0  0  0  0  0  0  0  0  0
    7.9300   -1.6410    0.1224 C   0  0  0  0  0  0  0  0  0  0  0  0
    6.9184    0.0794    1.4874 C   0  0  0  0  0  0  0  0  0  0  0  0
   12.0607    1.8553    3.7161 O   0  0  0  0  0  0  0  0  0  0  0  0
   14.0315    1.0124    4.1838 O   0  5  0  0  0  0  0  0  0  0  0  0
    7.1115   -0.5175    0.2409 C   0  0  0  0  0  0  0  0  0  0  0  0
    9.7052   -4.5168    3.4795 H   0  0  0  0  0  0  0  0  0  0  0  0
   10.2251   -6.9694    2.5947 H   0  0  0  0  0  0  0  0  0  0  0  0
    9.9842   -7.0279    4.3244 H   0  0  0  0  0  0  0  0  0  0  0  0
   11.2928   -7.9262    3.5936 H   0  0  0  0  0  0  0  0  0  0  0  0
   13.2084   -3.6729    3.8851 H   0  0  0  0  0  0  0  0  0  0  0  0
   10.2500    0.1998    3.7039 H   0  0  0  0  0  0  0  0  0  0  0  0
   14.1381   -1.4271    3.9867 H   0  0  0  0  0  0  0  0  0  0  0  0
    9.1661   -2.9973    1.1649 H   0  0  0  0  0  0  0  0  0  0  0  0
    7.4029   -0.0048    3.5411 H   0  0  0  0  0  0  0  0  0  0  0  0
    8.0765   -2.0778   -0.8011 H   0  0  0  0  0  0  0  0  0  0  0  0
    6.3179    0.9144    1.5715 H   0  0  0  0  0  0  0  0  0  0  0  0
    6.6480   -0.1273   -0.5945 H   0  0  0  0  0  0  0  0  0  0  0  0
  1  2  2  0  0  0  0
  1  3  2  0  0  0  0
  1  4  1  0  0  0  0
  1  5  1  0  0  0  0
  4  6  1  0  0  0  0
  4 22  1  0  0  0  0
  5 23  1  0  0  0  0
  5 24  1  0  0  0  0
  5 25  1  0  0  0  0
  6  7  2  0  0  0  0
  6  8  1  0  0  0  0
  7  9  1  0  0  0  0
  7 10  1  0  0  0  0
  8 11  2  0  0  0  0
  8 26  1  0  0  0  0
  9 12  1  0  0  0  0
 10 13  2  0  0  0  0
 10 27  1  0  0  0  0
 11 13  1  0  0  0  0
 11 28  1  0  0  0  0
 12 14  2  0  0  0  0
 12 15  1  0  0  0  0
 13 16  1  0  0  0  0
 14 17  1  0  0  0  0
 14 29  1  0  0  0  0
 15 18  2  0  0  0  0
 15 30  1  0  0  0  0
 16 19  2  0  0  0  0
 16 20  1  0  0  0  0
 17 21  2  0  0  0  0
 17 31  1  0  0  0  0
 18 21  1  0  0  0  0
 18 32  1  0  0  0  0
 21 33  1  0  0  0  0
M  CHG  1  16   1
M  CHG  1  20  -1
M  END
>  <Code-name>
N11

>  <Compound>
Nimesulide

>  <Specie>


>  <Reference>


>  <Organism>
COX2

>  <Smiles>
CS(Nc(ccc([N+]([O-])=O)c1)c1Oc1ccccc1)(=O)=O

>  <MMFF94 Energy>
21.382

>  <Total Molweight>
308.313

>  <Molweight>
308.313

>  <Monoisotopic Mass>
308.046693

>  <cLogP>
1.1823

>  <cLogS>
-5.46

>  <H-Acceptors>
7

>  <H-Donors>
1

>  <Total Surface Area>
218.99

>  <Relative PSA>
0.36741

>  <Polar Surface Area>
109.6

>  <Druglikeness>
-7.2946

>  <Mutagenic>
none

>  <Tumorigenic>
none

>  <Reproductive Effective>
none

>  <Irritant>
none

>  <Nasty Functions>
aromatic nitro

>  <Shape Index>
0.47619

>  <Molecular Flexibility>
0.50537

>  <Molecular Complexity>
0.74264

>  <Fragments>
1

>  <Non-H Atoms>
21

>  <Non-C/H Atoms>
8

>  <Metal-Atoms>
0

>  <Electronegative Atoms>
8

>  <Stereo Centers>
0

>  <Rotatable Bonds>
4

>  <Rings Closures>
2

>  <Small Rings>
2

>  <Aromatic Rings>
2

>  <Aromatic Atoms>
12

>  <sp3-Atoms>
4

>  <Symmetric atoms>
3

>  <Amides>
1

>  <Amines>
0

>  <Alkyl-Amines>
0

>  <Aromatic Amines>
0

>  <Aromatic Nitrogens>
0

>  <Basic Nitrogens>
0

>  <Acidic Oxygens>
1

>  <Stereo Configuration>


> <Gold.Version>
5.8.1

> <Gold.Id.Protein>
ID_2|Prot_COX2_5IKQ_Alig|mol2

> <Gold.Goldscore.Fitness>
59.0422

> <Gold.Goldscore.Internal.Vdw>
-1.4480

> <Gold.Goldscore.Internal.Torsion>
-4.5277

> <Gold.Goldscore.External.Vdw>
41.8552

> <Gold.Goldscore.Internal.HBond>
0.0000

> <Gold.Goldscore.External.HBond>
1.9033

> <Gold.Goldscore.Internal.Correction>
-5.5638

> <Gold.Goldscore.Hbonds>
donor molecule, donor type, donor heavy atom, donor atom, acceptor molecule, acceptor atom, score
      P1  H  5176  5185       L1    20  0.95

> <Gold.Goldscore.Internal.Vdw.Weighted>
-1.4480

> <Gold.Goldscore.Internal.Torsion.Weighted>
-4.5277

> <Gold.Goldscore.External.Vdw.Weighted>
57.5509

> <Gold.Goldscore.Internal.HBond.Weighted>
0.0000

> <Gold.Goldscore.External.HBond.Weighted>
1.9033

> <Gold.Goldscore.Internal.Correction.Weighted>
-5.5638

> <Gold.Protein.RotatedTorsions>
[ 5077 5068 5067 5065 ] final -150.78 input  179.94 | X-H torsion
[ 5157 5152 5151 5148 ] final  -41.77 input -179.92 | X-H torsion
[ 5185 5176 5175 5173 ] final  140.67 input -179.99 | X-H torsion
[ 5712 5703 5702 5700 ] final  102.51 input  180.00 | X-H torsion
[ 8036 8031 8030 8027 ] final -171.99 input -179.94 | X-H torsion
[ 2749 2745 2743 2740 ] final -107.68 input  -60.05 | X-H torsion
[ 1366 1361 1360 1357 ] final  -45.71 input  -60.09 | X-H torsion
[ 2556 2551 2550 2547 ] final   23.30 input   59.97 | X-H torsion

> <Gold.Protein.ActiveResidues>
 PRO86   VAL89   HIS90   LEU93   THR94   ILE112  MET113  TYR115  VAL116  LEU117 
 THR118  SER119  ARG120  SER121  LEU123  ILE124  GLN192  SER194  PHE198  PHE201 
 ALA202  GLN203  PHE205  THR206  PHE209  PHE210  VAL228  ILE341  ILE343  VAL344 
 ILE345  GLU346  ASP347  TYR348  VAL349  GLN350  HIS351  LEU352  SER353  GLY354 
 TYR355  PHE357  LEU359  LYS360  GLU380  PHE381  ASN382  THR383  LEU384  TYR385 
 HIS386  TRP387  LEU390  VAL434  LEU507  ARG513  ALA516  ILE517  PHE518  GLY519 
 GLU520  THR521  MET522  VAL523  GLU524  VAL525  GLY526  ALA527  PRO528  PHE529 
 SER530  LEU531  LYS532  GLY533  LEU534  MET535  COH609 

> <Gold.Protein.RotatedAtoms>
   17.7851    7.7726    2.9501 H   0  0  0  0  0  0  0  0  0  0  0  0  # atno 1366 bound_to 1361
    5.1596   -9.9870    7.8768 H   0  0  0  0  0  0  0  0  0  0  0  0  # atno 2556 bound_to 2551
   -3.0346   -0.4559    1.1316 H   0  0  0  0  0  0  0  0  0  0  0  0  # atno 2749 bound_to 2745
    2.1405   -1.9097    3.7465 H   0  0  0  0  0  0  0  0  0  0  0  0  # atno 5077 bound_to 5068
   11.4643   -2.5124    9.2835 H   0  0  0  0  0  0  0  0  0  0  0  0  # atno 5157 bound_to 5152
   15.1721    0.0865    4.9193 H   0  0  0  0  0  0  0  0  0  0  0  0  # atno 5185 bound_to 5176
    2.9965   -0.6426    2.4389 H   0  0  0  0  0  0  0  0  0  0  0  0  # atno 5712 bound_to 5703
    5.8699    3.7838    3.5832 H   0  0  0  0  0  0  0  0  0  0  0  0  # atno 8036 bound_to 8031
    0.7215   -1.4359    3.8992 LP  0  0  0  0  0  0  0  0  0  0  0  0  # atno 8267 bound_to 5068
    1.1997   -2.9459    4.2966 LP  0  0  0  0  0  0  0  0  0  0  0  0  # atno 8268 bound_to 5068
   12.1574   -1.1765    9.2850 LP  0  0  0  0  0  0  0  0  0  0  0  0  # atno 8279 bound_to 5152
   12.9647   -2.5934    9.1994 LP  0  0  0  0  0  0  0  0  0  0  0  0  # atno 8280 bound_to 5152
   15.7700   -1.2474    4.5701 LP  0  0  0  0  0  0  0  0  0  0  0  0  # atno 8281 bound_to 5176
   16.6675    0.0272    5.0565 LP  0  0  0  0  0  0  0  0  0  0  0  0  # atno 8282 bound_to 5176
    1.5910   -0.8580    2.9256 LP  0  0  0  0  0  0  0  0  0  0  0  0  # atno 8283 bound_to 5703
    2.1842    0.6168    2.5520 LP  0  0  0  0  0  0  0  0  0  0  0  0  # atno 8284 bound_to 5703
    4.6073    4.4971    3.1870 LP  0  0  0  0  0  0  0  0  0  0  0  0  # atno 8309 bound_to 8031
    5.9618    5.2828    3.6502 LP  0  0  0  0  0  0  0  0  0  0  0  0  # atno 8310 bound_to 8031
   -3.2622   -0.1826   -0.3302 LP  0  0  0  0  0  0  0  0  0  0  0  0  # atno 8323 bound_to 2745
   -4.3144    0.2757    0.8314 LP  0  0  0  0  0  0  0  0  0  0  0  0  # atno 8324 bound_to 2745
   18.8775    6.7634    3.1785 LP  0  0  0  0  0  0  0  0  0  0  0  0  # atno 8335 bound_to 1361
   18.0450    6.8663    1.7775 LP  0  0  0  0  0  0  0  0  0  0  0  0  # atno 8336 bound_to 1361
    4.5425   -8.6289    7.6792 LP  0  0  0  0  0  0  0  0  0  0  0  0  # atno 8342 bound_to 2551
    4.8155   -9.6658    6.4476 LP  0  0  0  0  0  0  0  0  0  0  0  0  # atno 8343 bound_to 2551

