
N13|LMW3_p|sdf|224|dock2
  -GOLD-   61122 6323D 1   1.00000     0.00000

 36 38  0  0  0  0  0  0  0  0  1 V2000
   11.8461   -6.9230    3.3778 S   0  0  0  0  0  0  0  0  0  0  0  0
   12.5432   -7.3565    4.5738 O   0  0  0  0  0  0  0  0  0  0  0  0
   10.5639   -7.4948    3.0144 O   0  0  0  0  0  0  0  0  0  0  0  0
   11.6309   -5.1624    3.4926 C   0  0  0  0  0  0  0  0  0  0  0  0
   12.9481   -7.1092    2.0006 C   0  0  0  0  0  0  0  0  0  0  0  0
   10.3448   -4.6320    3.5954 C   0  0  0  0  0  0  0  0  0  0  0  0
   12.7489   -4.3275    3.5208 C   0  0  0  0  0  0  0  0  0  0  0  0
   10.1789   -3.2487    3.7042 C   0  0  0  0  0  0  0  0  0  0  0  0
   12.5739   -2.9449    3.6324 C   0  0  0  0  0  0  0  0  0  0  0  0
   11.2891   -2.3894    3.7315 C   0  0  0  0  0  0  0  0  0  0  0  0
   11.1107   -0.9358    3.8392 C   0  0  0  0  0  0  0  0  0  0  0  0
   10.1921   -0.1540    3.2533 C   0  0  0  0  0  0  0  0  0  0  0  0
   12.0257   -0.1312    4.6818 C   0  0  0  0  0  0  0  0  0  0  0  0
    9.0769   -0.5108    2.3712 C   0  0  0  0  0  0  0  0  0  0  0  0
   10.5246    1.2294    3.6624 C   0  0  0  0  0  0  0  0  0  0  0  0
   11.6031    1.2134    4.4929 O   0  0  0  0  0  0  0  0  0  0  0  0
    9.2267   -1.5207    1.4105 C   0  0  0  0  0  0  0  0  0  0  0  0
    7.8454    0.1558    2.4560 C   0  0  0  0  0  0  0  0  0  0  0  0
    9.9415    2.2412    3.3155 O   0  0  0  0  0  0  0  0  0  0  0  0
    8.1665   -1.8688    0.5696 C   0  0  0  0  0  0  0  0  0  0  0  0
    6.7846   -0.1943    1.6170 C   0  0  0  0  0  0  0  0  0  0  0  0
    6.9452   -1.2081    0.6758 C   0  0  0  0  0  0  0  0  0  0  0  0
   13.9289   -6.7877    2.2826 H   0  0  0  0  0  0  0  0  0  0  0  0
   12.5996   -6.5149    1.1819 H   0  0  0  0  0  0  0  0  0  0  0  0
   12.9808   -8.1375    1.7064 H   0  0  0  0  0  0  0  0  0  0  0  0
    9.5228   -5.2558    3.5912 H   0  0  0  0  0  0  0  0  0  0  0  0
   13.6981   -4.7278    3.4598 H   0  0  0  0  0  0  0  0  0  0  0  0
    9.2277   -2.8534    3.7654 H   0  0  0  0  0  0  0  0  0  0  0  0
   13.3994   -2.3256    3.6420 H   0  0  0  0  0  0  0  0  0  0  0  0
   13.0395   -0.2561    4.3633 H   0  0  0  0  0  0  0  0  0  0  0  0
   11.9921   -0.4251    5.7101 H   0  0  0  0  0  0  0  0  0  0  0  0
   10.1298   -2.0124    1.3235 H   0  0  0  0  0  0  0  0  0  0  0  0
    7.7217    0.9132    3.1460 H   0  0  0  0  0  0  0  0  0  0  0  0
    8.2886   -2.6165   -0.1311 H   0  0  0  0  0  0  0  0  0  0  0  0
    5.8814    0.2987    1.6948 H   0  0  0  0  0  0  0  0  0  0  0  0
    6.1606   -1.4692    0.0581 H   0  0  0  0  0  0  0  0  0  0  0  0
  1  2  2  0  0  0  0
  1  3  2  0  0  0  0
  1  4  1  0  0  0  0
  1  5  1  0  0  0  0
  4  6  2  0  0  0  0
  4  7  1  0  0  0  0
  5 23  1  0  0  0  0
  5 24  1  0  0  0  0
  5 25  1  0  0  0  0
  6  8  1  0  0  0  0
  6 26  1  0  0  0  0
  7  9  2  0  0  0  0
  7 27  1  0  0  0  0
  8 10  2  0  0  0  0
  8 28  1  0  0  0  0
  9 10  1  0  0  0  0
  9 29  1  0  0  0  0
 10 11  1  0  0  0  0
 11 12  2  0  0  0  0
 11 13  1  0  0  0  0
 12 14  1  0  0  0  0
 12 15  1  0  0  0  0
 13 16  1  0  0  0  0
 13 30  1  0  0  0  0
 13 31  1  0  0  0  0
 14 17  2  0  0  0  0
 14 18  1  0  0  0  0
 15 19  2  0  0  0  0
 15 16  1  0  0  0  0
 17 20  1  0  0  0  0
 17 32  1  0  0  0  0
 18 21  2  0  0  0  0
 18 33  1  0  0  0  0
 20 22  2  0  0  0  0
 20 34  1  0  0  0  0
 21 22  1  0  0  0  0
 21 35  1  0  0  0  0
 22 36  1  0  0  0  0
M  END
>  <Code-name>
N13

>  <Compound>
Rofecoxib

>  <Specie>


>  <Reference>


>  <Organism>
COX2

>  <Smiles>
CS(c(cc1)ccc1C(COC1=O)=C1c1ccccc1)(=O)=O

>  <MMFF94 Energy>
70.675

>  <Total Molweight>
314.360

>  <Molweight>
314.360

>  <Monoisotopic Mass>
314.061280

>  <cLogP>
1.2168

>  <cLogS>
-3.076

>  <H-Acceptors>
4

>  <H-Donors>
0

>  <Total Surface Area>
224.79

>  <Relative PSA>
0.22964

>  <Polar Surface Area>
68.82

>  <Druglikeness>
4.3117

>  <Mutagenic>
none

>  <Tumorigenic>
none

>  <Reproductive Effective>
high

>  <Irritant>
none

>  <Nasty Functions>


>  <Shape Index>
0.54545

>  <Molecular Flexibility>
0.45981

>  <Molecular Complexity>
0.80548

>  <Fragments>
1

>  <Non-H Atoms>
22

>  <Non-C/H Atoms>
5

>  <Metal-Atoms>
0

>  <Electronegative Atoms>
5

>  <Stereo Centers>
0

>  <Rotatable Bonds>
3

>  <Rings Closures>
3

>  <Small Rings>
3

>  <Aromatic Rings>
2

>  <Aromatic Atoms>
12

>  <sp3-Atoms>
4

>  <Symmetric atoms>
5

>  <Amides>
0

>  <Amines>
0

>  <Alkyl-Amines>
0

>  <Aromatic Amines>
0

>  <Aromatic Nitrogens>
0

>  <Basic Nitrogens>
0

>  <Acidic Oxygens>
0

>  <Stereo Configuration>


> <Gold.Version>
5.8.1

> <Gold.Id.Protein>
ID_2|Prot_COX2_5IKQ_Alig|mol2

> <Gold.Goldscore.Fitness>
67.5613

> <Gold.Goldscore.Internal.Vdw>
2.1147

> <Gold.Goldscore.Internal.Torsion>
-8.4390

> <Gold.Goldscore.External.Vdw>
49.9927

> <Gold.Goldscore.Internal.HBond>
0.0000

> <Gold.Goldscore.External.HBond>
0.0355

> <Gold.Goldscore.Internal.Correction>
-5.1103

> <Gold.Goldscore.Hbonds>
donor molecule, donor type, donor heavy atom, donor atom, acceptor molecule, acceptor atom, score
      P1  H  7855  7866       L1     3  0.02

> <Gold.Goldscore.Internal.Vdw.Weighted>
2.1147

> <Gold.Goldscore.Internal.Torsion.Weighted>
-8.4390

> <Gold.Goldscore.External.Vdw.Weighted>
68.7399

> <Gold.Goldscore.Internal.HBond.Weighted>
0.0000

> <Gold.Goldscore.External.HBond.Weighted>
0.0355

> <Gold.Goldscore.Internal.Correction.Weighted>
-5.1103

> <Gold.Protein.RotatedTorsions>
[ 5077 5068 5067 5065 ] final  106.45 input  179.94 | X-H torsion
[ 5157 5152 5151 5148 ] final -169.30 input -179.92 | X-H torsion
[ 5185 5176 5175 5173 ] final   36.69 input -179.99 | X-H torsion
[ 5712 5703 5702 5700 ] final  123.73 input  180.00 | X-H torsion
[ 8036 8031 8030 8027 ] final  179.49 input -179.94 | X-H torsion
[ 2749 2745 2743 2740 ] final   -0.59 input  -60.05 | X-H torsion
[ 1366 1361 1360 1357 ] final  -59.99 input  -60.09 | X-H torsion
[ 2556 2551 2550 2547 ] final -172.85 input   59.97 | X-H torsion

> <Gold.Protein.ActiveResidues>
 PRO86   VAL89   HIS90   LEU93   THR94   ILE112  MET113  TYR115  VAL116  LEU117 
 THR118  SER119  ARG120  SER121  LEU123  ILE124  GLN192  SER194  PHE198  PHE201 
 ALA202  GLN203  PHE205  THR206  PHE209  PHE210  VAL228  ILE341  ILE343  VAL344 
 ILE345  GLU346  ASP347  TYR348  VAL349  GLN350  HIS351  LEU352  SER353  GLY354 
 TYR355  PHE357  LEU359  LYS360  GLU380  PHE381  ASN382  THR383  LEU384  TYR385 
 HIS386  TRP387  LEU390  VAL434  LEU507  ARG513  ALA516  ILE517  PHE518  GLY519 
 GLU520  THR521  MET522  VAL523  GLU524  VAL525  GLY526  ALA527  PRO528  PHE529 
 SER530  LEU531  LYS532  GLY533  LEU534  MET535  COH609 

> <Gold.Protein.RotatedAtoms>
   17.8981    7.7423    3.1079 H   0  0  0  0  0  0  0  0  0  0  0  0  # atno 1366 bound_to 1361
    4.5578   -9.1194    6.7215 H   0  0  0  0  0  0  0  0  0  0  0  0  # atno 2556 bound_to 2551
   -4.1136    0.1927    0.9596 H   0  0  0  0  0  0  0  0  0  0  0  0  # atno 2749 bound_to 2745
    1.0223   -1.4015    3.8598 H   0  0  0  0  0  0  0  0  0  0  0  0  # atno 5077 bound_to 5068
   12.2549   -1.3360    9.2305 H   0  0  0  0  0  0  0  0  0  0  0  0  # atno 5157 bound_to 5152
   15.5596   -1.0600    4.6416 H   0  0  0  0  0  0  0  0  0  0  0  0  # atno 5185 bound_to 5176
    3.0526   -0.3630    2.3846 H   0  0  0  0  0  0  0  0  0  0  0  0  # atno 5712 bound_to 5703
    5.7690    3.7352    3.5486 H   0  0  0  0  0  0  0  0  0  0  0  0  # atno 8036 bound_to 8031
    0.9453   -2.8303    4.3223 LP  0  0  0  0  0  0  0  0  0  0  0  0  # atno 8267 bound_to 5068
    2.3149   -2.1601    3.7377 LP  0  0  0  0  0  0  0  0  0  0  0  0  # atno 8268 bound_to 5068
   12.8944   -2.6981    9.2041 LP  0  0  0  0  0  0  0  0  0  0  0  0  # atno 8279 bound_to 5152
   11.2822   -2.4788    9.3437 LP  0  0  0  0  0  0  0  0  0  0  0  0  # atno 8280 bound_to 5152
   16.7487   -0.2130    4.9984 LP  0  0  0  0  0  0  0  0  0  0  0  0  # atno 8281 bound_to 5176
   15.2236    0.3694    4.9617 LP  0  0  0  0  0  0  0  0  0  0  0  0  # atno 8282 bound_to 5176
    1.8403   -1.0968    2.8852 LP  0  0  0  0  0  0  0  0  0  0  0  0  # atno 8283 bound_to 5703
    1.8675    0.5200    2.6577 LP  0  0  0  0  0  0  0  0  0  0  0  0  # atno 8284 bound_to 5703
    4.6205    4.6367    3.1906 LP  0  0  0  0  0  0  0  0  0  0  0  0  # atno 8309 bound_to 8031
    6.0696    5.2016    3.6881 LP  0  0  0  0  0  0  0  0  0  0  0  0  # atno 8310 bound_to 8031
   -2.8443   -0.6079    1.0657 LP  0  0  0  0  0  0  0  0  0  0  0  0  # atno 8323 bound_to 2745
   -3.4400   -0.0757   -0.3586 LP  0  0  0  0  0  0  0  0  0  0  0  0  # atno 8324 bound_to 2745
   18.9096    6.6352    2.9847 LP  0  0  0  0  0  0  0  0  0  0  0  0  # atno 8335 bound_to 1361
   17.8777    7.0306    1.7824 LP  0  0  0  0  0  0  0  0  0  0  0  0  # atno 8336 bound_to 1361
    5.2636  -10.3119    7.3080 LP  0  0  0  0  0  0  0  0  0  0  0  0  # atno 8342 bound_to 2551
    4.8143   -9.0207    8.2009 LP  0  0  0  0  0  0  0  0  0  0  0  0  # atno 8343 bound_to 2551

