
023|LMW3_p|sdf|23|dock3
  -GOLD-   6 722 4 43D 1   1.00000     0.00000

 83 86  0  0  0  0  0  0  0  0  2 V2000
   12.7941    4.6280    5.5450 O   0  0  0  0  0  0  0  0  0  0  0  0
   12.8488    3.7124    6.3486 C   0  0  0  0  0  0  0  0  0  0  0  0
   12.1905    3.7935    7.5210 O   0  5  0  0  0  0  0  0  0  0  0  0
   13.6310    2.4235    6.2099 C   0  0  1  0  0  0  0  0  0  0  0  0
   13.3272    1.7201    4.8642 C   0  0  2  0  0  0  0  0  0  0  0  0
   15.1261    2.7330    6.4616 C   0  0  0  0  0  0  0  0  0  0  0  0
   11.8353    1.5076    4.4553 C   0  0  2  0  0  0  0  0  0  0  0  0
   13.9008    0.2764    4.7976 C   0  0  0  0  0  0  0  0  0  0  0  0
   15.9621    3.0090    5.1984 C   0  0  0  0  0  0  0  0  0  0  0  0
   11.9755    0.4459    3.3031 C   0  0  1  0  0  0  0  0  0  0  0  0
   11.1004    2.7238    3.8829 C   0  0  0  0  0  0  0  0  0  0  0  0
   11.0243    0.9860    5.6845 C   0  0  0  0  0  0  0  0  0  0  0  0
   12.9123   -0.5738    3.9749 C   0  0  0  0  0  0  0  0  0  0  0  0
   17.4397    3.3178    5.4061 C   0  0  0  0  0  0  0  0  0  0  0  0
   10.5983   -0.0077    2.8304 C   0  0  0  0  0  0  0  0  0  0  0  0
   12.6981    0.9543    2.0166 C   0  0  0  0  0  0  0  0  0  0  0  0
    9.7461    2.3306    3.2542 C   0  0  0  0  0  0  0  0  0  0  0  0
   18.1017    3.0872    6.5553 C   0  0  0  0  0  0  0  0  0  0  0  0
   18.1923    3.9259    4.2206 C   0  0  0  0  0  0  0  0  0  0  0  0
    9.5755    0.8850    2.7697 C   0  0  0  0  0  0  0  0  0  0  0  0
   10.4773   -1.4450    2.3801 C   0  0  0  0  0  0  0  0  0  0  0  0
   18.5677    5.3902    4.4620 C   0  0  0  0  0  0  0  0  0  0  0  0
   19.4274    3.1072    3.8362 C   0  0  0  0  0  0  0  0  0  0  0  0
    8.1675    0.4749    2.2556 C   0  0  2  0  0  0  0  0  0  0  0  0
    9.0777   -1.8863    1.9511 C   0  0  0  0  0  0  0  0  0  0  0  0
    8.3250   -0.7381    1.2613 C   0  0  1  0  0  0  0  0  0  0  0  0
    7.4791    1.6333    1.4876 C   0  0  0  0  0  0  0  0  0  0  0  0
    7.3464    0.1546    3.5278 C   0  0  0  0  0  0  0  0  0  0  0  0
    7.0384   -1.1814    0.4681 C   0  0  0  0  0  0  0  0  0  0  0  0
    6.1769    1.2271    0.8061 C   0  0  0  0  0  0  0  0  0  0  0  0
    6.3900    0.0792   -0.1747 C   0  0  2  0  0  0  0  0  0  0  0  0
    7.4531   -2.1236   -0.6981 C   0  0  0  0  0  0  0  0  0  0  0  0
    6.0204   -1.9804    1.3084 C   0  0  0  0  0  0  0  0  0  0  0  0
    5.1478   -0.2302   -0.8047 O   0  0  0  0  0  0  0  0  0  0  0  0
   13.3275    1.7086    6.9459 H   0  0  0  0  0  0  0  0  0  0  0  0
   13.7820    2.4312    4.2066 H   0  0  0  0  0  0  0  0  0  0  0  0
   15.5571    1.8938    6.9665 H   0  0  0  0  0  0  0  0  0  0  0  0
   15.1492    3.6360    7.0352 H   0  0  0  0  0  0  0  0  0  0  0  0
   13.9956   -0.1255    5.7846 H   0  0  0  0  0  0  0  0  0  0  0  0
   14.8697    0.2750    4.3436 H   0  0  0  0  0  0  0  0  0  0  0  0
   15.5238    3.8464    4.6968 H   0  0  0  0  0  0  0  0  0  0  0  0
   15.9426    2.0938    4.6443 H   0  0  0  0  0  0  0  0  0  0  0  0
   11.7128    3.1766    3.1314 H   0  0  0  0  0  0  0  0  0  0  0  0
   10.9096    3.4055    4.6853 H   0  0  0  0  0  0  0  0  0  0  0  0
   10.1039    0.5562    5.3482 H   0  0  0  0  0  0  0  0  0  0  0  0
   10.8167    1.8007    6.3465 H   0  0  0  0  0  0  0  0  0  0  0  0
   11.5968    0.2440    6.2007 H   0  0  0  0  0  0  0  0  0  0  0  0
   12.3585   -1.2300    4.6133 H   0  0  0  0  0  0  0  0  0  0  0  0
   13.4124   -1.1929    3.2597 H   0  0  0  0  0  0  0  0  0  0  0  0
   13.5429    0.3303    1.8118 H   0  0  0  0  0  0  0  0  0  0  0  0
   13.0266    1.9616    2.1665 H   0  0  0  0  0  0  0  0  0  0  0  0
   12.0202    0.9196    1.1895 H   0  0  0  0  0  0  0  0  0  0  0  0
    9.5877    2.9705    2.4114 H   0  0  0  0  0  0  0  0  0  0  0  0
    9.0392    2.4330    4.0510 H   0  0  0  0  0  0  0  0  0  0  0  0
   17.6066    2.6775    7.3628 H   0  0  0  0  0  0  0  0  0  0  0  0
   19.1045    3.3201    6.6289 H   0  0  0  0  0  0  0  0  0  0  0  0
   17.5130    3.8962    3.3944 H   0  0  0  0  0  0  0  0  0  0  0  0
   10.7861   -2.0713    3.1908 H   0  0  0  0  0  0  0  0  0  0  0  0
   11.0920   -1.5319    1.5085 H   0  0  0  0  0  0  0  0  0  0  0  0
   17.6868    5.9960    4.4189 H   0  0  0  0  0  0  0  0  0  0  0  0
   19.2579    5.7102    3.7096 H   0  0  0  0  0  0  0  0  0  0  0  0
   19.0209    5.4879    5.4264 H   0  0  0  0  0  0  0  0  0  0  0  0
   19.1707    2.0690    3.8021 H   0  0  0  0  0  0  0  0  0  0  0  0
   20.1974    3.2605    4.5632 H   0  0  0  0  0  0  0  0  0  0  0  0
   19.7774    3.4199    2.8746 H   0  0  0  0  0  0  0  0  0  0  0  0
    8.5280   -2.1953    2.8156 H   0  0  0  0  0  0  0  0  0  0  0  0
    9.1732   -2.6959    1.2581 H   0  0  0  0  0  0  0  0  0  0  0  0
    8.9240   -0.3744    0.4527 H   0  0  0  0  0  0  0  0  0  0  0  0
    8.1548    1.9912    0.7393 H   0  0  0  0  0  0  0  0  0  0  0  0
    7.2338    2.3848    2.2087 H   0  0  0  0  0  0  0  0  0  0  0  0
    7.1310    1.0627    4.0513 H   0  0  0  0  0  0  0  0  0  0  0  0
    7.9104   -0.4973    4.1616 H   0  0  0  0  0  0  0  0  0  0  0  0
    6.4300   -0.3229    3.2501 H   0  0  0  0  0  0  0  0  0  0  0  0
    5.7859    2.0695    0.2746 H   0  0  0  0  0  0  0  0  0  0  0  0
    5.4927    0.8995    1.5607 H   0  0  0  0  0  0  0  0  0  0  0  0
    7.0979    0.4058   -0.9075 H   0  0  0  0  0  0  0  0  0  0  0  0
    6.6502   -2.1947   -1.4019 H   0  0  0  0  0  0  0  0  0  0  0  0
    7.6741   -3.0958   -0.3097 H   0  0  0  0  0  0  0  0  0  0  0  0
    8.3201   -1.7284   -1.1849 H   0  0  0  0  0  0  0  0  0  0  0  0
    5.2604   -1.3199    1.6705 H   0  0  0  0  0  0  0  0  0  0  0  0
    6.5213   -2.4360    2.1368 H   0  0  0  0  0  0  0  0  0  0  0  0
    5.5736   -2.7392    0.7005 H   0  0  0  0  0  0  0  0  0  0  0  0
    4.4825   -0.4294   -0.1274 H   0  0  0  0  0  0  0  0  0  0  0  0
  1  2  2  0  0  0  0
  2  3  1  0  0  0  0
  2  4  1  0  0  0  0
  4  5  1  0  0  0  0
  4  6  1  0  0  0  0
  4 35  1  0  0  0  0
  5  7  1  0  0  0  0
  5  8  1  0  0  0  0
  5 36  1  0  0  0  0
  6  9  1  0  0  0  0
  6 37  1  0  0  0  0
  6 38  1  0  0  0  0
  7 10  1  0  0  0  0
  7 11  1  0  0  0  0
  7 12  1  0  0  0  0
  8 13  1  0  0  0  0
  8 39  1  0  0  0  0
  8 40  1  0  0  0  0
  9 14  1  0  0  0  0
  9 41  1  0  0  0  0
  9 42  1  0  0  0  0
 10 15  1  0  0  0  0
 10 16  1  0  0  0  0
 10 13  1  0  0  0  0
 11 17  1  0  0  0  0
 11 43  1  0  0  0  0
 11 44  1  0  0  0  0
 12 45  1  0  0  0  0
 12 46  1  0  0  0  0
 12 47  1  0  0  0  0
 13 48  1  0  0  0  0
 13 49  1  0  0  0  0
 14 18  2  0  0  0  0
 14 19  1  0  0  0  0
 15 20  2  0  0  0  0
 15 21  1  0  0  0  0
 16 50  1  0  0  0  0
 16 51  1  0  0  0  0
 16 52  1  0  0  0  0
 17 20  1  0  0  0  0
 17 53  1  0  0  0  0
 17 54  1  0  0  0  0
 18 55  1  0  0  0  0
 18 56  1  0  0  0  0
 19 22  1  0  0  0  0
 19 23  1  0  0  0  0
 19 57  1  0  0  0  0
 20 24  1  0  0  0  0
 21 25  1  0  0  0  0
 21 58  1  0  0  0  0
 21 59  1  0  0  0  0
 22 60  1  0  0  0  0
 22 61  1  0  0  0  0
 22 62  1  0  0  0  0
 23 63  1  0  0  0  0
 23 64  1  0  0  0  0
 23 65  1  0  0  0  0
 24 26  1  0  0  0  0
 24 27  1  0  0  0  0
 24 28  1  0  0  0  0
 25 26  1  0  0  0  0
 25 66  1  0  0  0  0
 25 67  1  0  0  0  0
 26 29  1  0  0  0  0
 26 68  1  0  0  0  0
 27 30  1  0  0  0  0
 27 69  1  0  0  0  0
 27 70  1  0  0  0  0
 28 71  1  0  0  0  0
 28 72  1  0  0  0  0
 28 73  1  0  0  0  0
 29 31  1  0  0  0  0
 29 32  1  0  0  0  0
 29 33  1  0  0  0  0
 30 31  1  0  0  0  0
 30 74  1  0  0  0  0
 30 75  1  0  0  0  0
 31 34  1  0  0  0  0
 31 76  1  0  0  0  0
 32 77  1  0  0  0  0
 32 78  1  0  0  0  0
 32 79  1  0  0  0  0
 33 80  1  0  0  0  0
 33 81  1  0  0  0  0
 33 82  1  0  0  0  0
 34 83  1  0  0  0  0
M  CHG  1   3  -1
M  END
>  <Code-name>
023

>  <Compound>
Ácido Eburicóico

>  <Specie>
Antrodia cinnamomea

>  <Reference>
SU et al., 2012

>  <Organism>
Anticancer Activity

>  <Smiles>
CC(C)C(CC[C@H]([C@@H](CC1)[C@@](C)(CC2)[C@]1(C)C(CC1)=C2[C@@](C)(CC2)[C@@H]1C(C)(C)[C@H]2O)C(O)=O)=C

>  <MMFF94 Energy>
99.658

>  <Total Molweight>
470.735

>  <Molweight>
470.735

>  <Monoisotopic Mass>
470.375995

>  <cLogP>
7.4303

>  <cLogS>
-6.255

>  <H-Acceptors>
3

>  <H-Donors>
2

>  <Total Surface Area>
363.18

>  <Relative PSA>
0.10805

>  <Polar Surface Area>
57.53

>  <Druglikeness>
-6.8885

>  <Mutagenic>
none

>  <Tumorigenic>
none

>  <Reproductive Effective>
low

>  <Irritant>
none

>  <Nasty Functions>


>  <Shape Index>
0.47059

>  <Molecular Flexibility>
0.34981

>  <Molecular Complexity>
1.0049

>  <Fragments>
1

>  <Non-H Atoms>
34

>  <Non-C/H Atoms>
3

>  <Metal-Atoms>
0

>  <Electronegative Atoms>
3

>  <Stereo Centers>
7

>  <Rotatable Bonds>
6

>  <Rings Closures>
4

>  <Small Rings>
4

>  <Aromatic Rings>
0

>  <Aromatic Atoms>
0

>  <sp3-Atoms>
28

>  <Symmetric atoms>
2

>  <Amides>
0

>  <Amines>
0

>  <Alkyl-Amines>
0

>  <Aromatic Amines>
0

>  <Aromatic Nitrogens>
0

>  <Basic Nitrogens>
0

>  <Acidic Oxygens>
1

>  <Stereo Configuration>
this enantiomer

> <Gold.Version>
5.8.1

> <Gold.Id.Protein>
ID_2|Prot_COX2_5IKQ_Alig|mol2

> <Gold.Goldscore.Fitness>
-46.3119

> <Gold.Goldscore.Internal.Vdw>
-31.5542

> <Gold.Goldscore.Internal.Torsion>
-11.1485

> <Gold.Goldscore.External.Vdw>
-21.7679

> <Gold.Goldscore.Internal.HBond>
0.0000

> <Gold.Goldscore.External.HBond>
0.1983

> <Gold.Goldscore.Internal.Correction>
-26.1234

> <Gold.Goldscore.Hbonds>
donor molecule, donor type, donor heavy atom, donor atom, acceptor molecule, acceptor atom, score
      L1  H    34    83       P1  5703  0.10

> <Gold.Goldscore.Internal.Vdw.Weighted>
-31.5542

> <Gold.Goldscore.Internal.Torsion.Weighted>
-11.1485

> <Gold.Goldscore.External.Vdw.Weighted>
-29.9309

> <Gold.Goldscore.Internal.HBond.Weighted>
0.0000

> <Gold.Goldscore.External.HBond.Weighted>
0.1983

> <Gold.Goldscore.Internal.Correction.Weighted>
-26.1234

> <Gold.Protein.RotatedTorsions>
[ 5077 5068 5067 5065 ] final -125.47 input  179.94 | X-H torsion
[ 5157 5152 5151 5148 ] final  179.21 input -179.92 | X-H torsion
[ 5185 5176 5175 5173 ] final  -61.56 input -179.99 | X-H torsion
[ 5712 5703 5702 5700 ] final  163.41 input  180.00 | X-H torsion
[ 8036 8031 8030 8027 ] final -108.54 input -179.94 | X-H torsion
[ 2749 2745 2743 2740 ] final  119.32 input  -60.05 | X-H torsion
[ 1366 1361 1360 1357 ] final  -10.29 input  -60.09 | X-H torsion
[ 2556 2551 2550 2547 ] final -146.49 input   59.97 | X-H torsion

> <Gold.Protein.ActiveResidues>
 PRO86   VAL89   HIS90   LEU93   THR94   ILE112  MET113  TYR115  VAL116  LEU117 
 THR118  SER119  ARG120  SER121  LEU123  ILE124  GLN192  SER194  PHE198  PHE201 
 ALA202  GLN203  PHE205  THR206  PHE209  PHE210  VAL228  ILE341  ILE343  VAL344 
 ILE345  GLU346  ASP347  TYR348  VAL349  GLN350  HIS351  LEU352  SER353  GLY354 
 TYR355  PHE357  LEU359  LYS360  GLU380  PHE381  ASN382  THR383  LEU384  TYR385 
 HIS386  TRP387  LEU390  VAL434  LEU507  ARG513  ALA516  ILE517  PHE518  GLY519 
 GLU520  THR521  MET522  VAL523  GLU524  VAL525  GLY526  ALA527  PRO528  PHE529 
 SER530  LEU531  LYS532  GLY533  LEU534  MET535  COH609 

> <Gold.Protein.RotatedAtoms>
   17.6333    7.6941    2.5008 H   0  0  0  0  0  0  0  0  0  0  0  0  # atno 1366 bound_to 1361
    4.4899   -8.8788    6.9810 H   0  0  0  0  0  0  0  0  0  0  0  0  # atno 2556 bound_to 2551
   -3.4326   -0.0504   -0.2011 H   0  0  0  0  0  0  0  0  0  0  0  0  # atno 2749 bound_to 2745
    2.1691   -2.2378    3.8523 H   0  0  0  0  0  0  0  0  0  0  0  0  # atno 5077 bound_to 5068
   12.4083   -1.3728    9.2170 H   0  0  0  0  0  0  0  0  0  0  0  0  # atno 5157 bound_to 5152
   16.5887   -0.5334    4.9307 H   0  0  0  0  0  0  0  0  0  0  0  0  # atno 5185 bound_to 5176
    2.8866    0.1451    2.3641 H   0  0  0  0  0  0  0  0  0  0  0  0  # atno 5712 bound_to 5703
    6.2576    4.5054    3.7120 H   0  0  0  0  0  0  0  0  0  0  0  0  # atno 8036 bound_to 8031
    1.0507   -1.2382    3.7460 LP  0  0  0  0  0  0  0  0  0  0  0  0  # atno 8267 bound_to 5068
    0.8362   -2.7507    4.3231 LP  0  0  0  0  0  0  0  0  0  0  0  0  # atno 8268 bound_to 5068
   12.7646   -2.8351    9.2135 LP  0  0  0  0  0  0  0  0  0  0  0  0  # atno 8279 bound_to 5152
   11.2286   -2.2978    9.3504 LP  0  0  0  0  0  0  0  0  0  0  0  0  # atno 8280 bound_to 5152
   15.5287    0.5255    5.0474 LP  0  0  0  0  0  0  0  0  0  0  0  0  # atno 8281 bound_to 5176
   15.2080   -1.0014    4.5656 LP  0  0  0  0  0  0  0  0  0  0  0  0  # atno 8282 bound_to 5176
    2.4436   -1.2439    2.7289 LP  0  0  0  0  0  0  0  0  0  0  0  0  # atno 8283 bound_to 5703
    1.4633    0.0574    2.8386 LP  0  0  0  0  0  0  0  0  0  0  0  0  # atno 8284 bound_to 5703
    5.0799    3.6412    3.3571 LP  0  0  0  0  0  0  0  0  0  0  0  0  # atno 8309 bound_to 8031
    5.0241    5.2730    3.3256 LP  0  0  0  0  0  0  0  0  0  0  0  0  # atno 8310 bound_to 8031
   -4.2550    0.2151    1.0304 LP  0  0  0  0  0  0  0  0  0  0  0  0  # atno 8323 bound_to 2745
   -2.8449   -0.6077    1.0668 LP  0  0  0  0  0  0  0  0  0  0  0  0  # atno 8324 bound_to 2745
   18.6270    7.1672    3.5003 LP  0  0  0  0  0  0  0  0  0  0  0  0  # atno 8335 bound_to 1361
   18.4771    6.5564    1.9933 LP  0  0  0  0  0  0  0  0  0  0  0  0  # atno 8336 bound_to 1361
    5.1543  -10.2265    6.9008 LP  0  0  0  0  0  0  0  0  0  0  0  0  # atno 8342 bound_to 2551
    5.0049   -9.3940    8.2977 LP  0  0  0  0  0  0  0  0  0  0  0  0  # atno 8343 bound_to 2551

