
026|LMW3_p|sdf|26|dock11
  -GOLD-   6 722 4173D 1   1.00000     0.00000

 78 81  0  0  0  0  0  0  0  0  2 V2000
    8.0221    2.8064    4.0740 O   0  0  0  0  0  0  0  0  0  0  0  0
    9.0070    2.1436    3.7521 C   0  0  0  0  0  0  0  0  0  0  0  0
    8.8717    0.8539    2.9633 C   0  0  0  0  0  0  0  0  0  0  0  0
   10.3854    2.6379    4.1596 C   0  0  0  0  0  0  0  0  0  0  0  0
    9.9769    0.0770    2.8109 C   0  0  0  0  0  0  0  0  0  0  0  0
    7.4859    0.4574    2.3859 C   0  0  2  0  0  0  0  0  0  0  0  0
   11.3138    1.4743    4.4973 C   0  0  1  0  0  0  0  0  0  0  0  0
    9.9390   -1.2512    2.0903 C   0  0  1  0  0  0  0  0  0  0  0  0
   11.3432    0.5755    3.2397 C   0  0  1  0  0  0  0  0  0  0  0  0
    7.7245   -0.4921    1.1420 C   0  0  1  0  0  0  0  0  0  0  0  0
    6.6573    1.6701    1.8671 C   0  0  0  0  0  0  0  0  0  0  0  0
    6.7231   -0.2107    3.5553 C   0  0  0  0  0  0  0  0  0  0  0  0
   12.8268    1.8394    4.6095 C   0  0  1  0  0  0  0  0  0  0  0  0
   10.8097    0.7387    5.7640 C   0  0  0  0  0  0  0  0  0  0  0  0
   10.4006   -2.2777    2.9618 O   0  0  0  0  0  0  0  0  0  0  0  0
    8.5739   -1.6939    1.5641 C   0  0  0  0  0  0  0  0  0  0  0  0
   12.5047   -0.3725    3.5321 C   0  0  0  0  0  0  0  0  0  0  0  0
    6.4352   -0.9012    0.3656 C   0  0  1  0  0  0  0  0  0  0  0  0
    5.3734    1.2836    1.1284 C   0  0  0  0  0  0  0  0  0  0  0  0
   13.3611    2.4483    5.9345 C   0  0  1  0  0  0  0  0  0  0  0  0
   13.5384    0.5086    4.2445 C   0  0  0  0  0  0  0  0  0  0  0  0
    5.6178   -1.7277    1.2014 O   0  0  0  0  0  0  0  0  0  0  0  0
    5.6415    0.3630   -0.0546 C   0  0  1  0  0  0  0  0  0  0  0  0
    6.7649   -1.7302   -0.8909 C   0  0  0  0  0  0  0  0  0  0  0  0
   14.9075    2.5905    5.9607 C   0  0  0  0  0  0  0  0  0  0  0  0
   12.7122    3.7944    6.2723 C   0  0  0  0  0  0  0  0  0  0  0  0
    6.3540    1.0877   -1.0596 O   0  0  0  0  0  0  0  0  0  0  0  0
   15.5073    3.3946    4.7979 C   0  0  0  0  0  0  0  0  0  0  0  0
   17.0127    3.5485    4.9100 C   0  0  0  0  0  0  0  0  0  0  0  0
   17.6865    2.8920    5.8725 C   0  0  0  0  0  0  0  0  0  0  0  0
   17.7383    4.4878    3.9555 C   0  0  2  0  0  0  0  0  0  0  0  0
   18.0884    3.7595    2.6644 C   0  0  0  0  0  0  0  0  0  0  0  0
   18.9910    5.1307    4.5453 C   0  0  0  0  0  0  0  0  0  0  0  0
   18.2926    2.5640    2.5237 O   0  0  0  0  0  0  0  0  0  0  0  0
   18.1528    4.5857    1.5989 O   0  5  0  0  0  0  0  0  0  0  0  0
   10.2897    3.2683    5.0188 H   0  0  0  0  0  0  0  0  0  0  0  0
   10.8067    3.1792    3.3383 H   0  0  0  0  0  0  0  0  0  0  0  0
   10.5636   -1.0996    1.2349 H   0  0  0  0  0  0  0  0  0  0  0  0
   11.5501    1.0523    2.3044 H   0  0  0  0  0  0  0  0  0  0  0  0
    8.2662    0.0816    0.4194 H   0  0  0  0  0  0  0  0  0  0  0  0
    7.2722    2.2349    1.1980 H   0  0  0  0  0  0  0  0  0  0  0  0
    6.3593    2.2298    2.7291 H   0  0  0  0  0  0  0  0  0  0  0  0
    6.4863    0.5263    4.2940 H   0  0  0  0  0  0  0  0  0  0  0  0
    7.3361   -0.9705    3.9932 H   0  0  0  0  0  0  0  0  0  0  0  0
    5.8194   -0.6498    3.1871 H   0  0  0  0  0  0  0  0  0  0  0  0
   13.0249    2.6680    3.9622 H   0  0  0  0  0  0  0  0  0  0  0  0
   10.8048    1.4166    6.5919 H   0  0  0  0  0  0  0  0  0  0  0  0
   11.4586   -0.0841    5.9805 H   0  0  0  0  0  0  0  0  0  0  0  0
    9.8176    0.3756    5.5945 H   0  0  0  0  0  0  0  0  0  0  0  0
    9.8494   -2.2964    3.7597 H   0  0  0  0  0  0  0  0  0  0  0  0
    8.0605   -2.2303    2.3346 H   0  0  0  0  0  0  0  0  0  0  0  0
    8.7276   -2.3165    0.7076 H   0  0  0  0  0  0  0  0  0  0  0  0
   12.9070   -0.7713    2.6244 H   0  0  0  0  0  0  0  0  0  0  0  0
   12.2081   -1.2148    4.1215 H   0  0  0  0  0  0  0  0  0  0  0  0
    4.9007    2.1744    0.7709 H   0  0  0  0  0  0  0  0  0  0  0  0
    4.7458    0.7572    1.8168 H   0  0  0  0  0  0  0  0  0  0  0  0
   13.0823    1.7411    6.6876 H   0  0  0  0  0  0  0  0  0  0  0  0
   13.8861    0.0225    5.1320 H   0  0  0  0  0  0  0  0  0  0  0  0
   14.3849    0.6885    3.6152 H   0  0  0  0  0  0  0  0  0  0  0  0
    6.0826   -2.5583    1.3884 H   0  0  0  0  0  0  0  0  0  0  0  0
    4.7019    0.0293   -0.4429 H   0  0  0  0  0  0  0  0  0  0  0  0
    7.5901   -1.2843   -1.4059 H   0  0  0  0  0  0  0  0  0  0  0  0
    5.9120   -1.7536   -1.5366 H   0  0  0  0  0  0  0  0  0  0  0  0
    7.0214   -2.7281   -0.6025 H   0  0  0  0  0  0  0  0  0  0  0  0
   15.3312    1.6082    5.9378 H   0  0  0  0  0  0  0  0  0  0  0  0
   15.1416    3.1349    6.8516 H   0  0  0  0  0  0  0  0  0  0  0  0
   11.6875    3.6395    6.5389 H   0  0  0  0  0  0  0  0  0  0  0  0
   12.7655    4.4398    5.4205 H   0  0  0  0  0  0  0  0  0  0  0  0
   13.2303    4.2441    7.0935 H   0  0  0  0  0  0  0  0  0  0  0  0
    5.8520    1.8811   -1.3032 H   0  0  0  0  0  0  0  0  0  0  0  0
   15.0631    4.3680    4.7893 H   0  0  0  0  0  0  0  0  0  0  0  0
   15.3027    2.8594    3.8943 H   0  0  0  0  0  0  0  0  0  0  0  0
   17.1840    2.2581    6.5134 H   0  0  0  0  0  0  0  0  0  0  0  0
   18.7056    3.0224    5.9697 H   0  0  0  0  0  0  0  0  0  0  0  0
   17.0561    5.2884    3.7590 H   0  0  0  0  0  0  0  0  0  0  0  0
   19.7743    4.4037    4.5971 H   0  0  0  0  0  0  0  0  0  0  0  0
   18.7761    5.4943    5.5284 H   0  0  0  0  0  0  0  0  0  0  0  0
   19.3004    5.9448    3.9237 H   0  0  0  0  0  0  0  0  0  0  0  0
  1  2  2  0  0  0  0
  2  3  1  0  0  0  0
  2  4  1  0  0  0  0
  3  5  2  0  0  0  0
  3  6  1  0  0  0  0
  4  7  1  0  0  0  0
  4 36  1  0  0  0  0
  4 37  1  0  0  0  0
  5  8  1  0  0  0  0
  5  9  1  0  0  0  0
  6 10  1  0  0  0  0
  6 11  1  0  0  0  0
  6 12  1  0  0  0  0
  7 13  1  0  0  0  0
  7 14  1  0  0  0  0
  7  9  1  0  0  0  0
  8 15  1  0  0  0  0
  8 16  1  0  0  0  0
  8 38  1  0  0  0  0
  9 17  1  0  0  0  0
  9 39  1  0  0  0  0
 10 18  1  0  0  0  0
 10 16  1  0  0  0  0
 10 40  1  0  0  0  0
 11 19  1  0  0  0  0
 11 41  1  0  0  0  0
 11 42  1  0  0  0  0
 12 43  1  0  0  0  0
 12 44  1  0  0  0  0
 12 45  1  0  0  0  0
 13 20  1  0  0  0  0
 13 21  1  0  0  0  0
 13 46  1  0  0  0  0
 14 47  1  0  0  0  0
 14 48  1  0  0  0  0
 14 49  1  0  0  0  0
 15 50  1  0  0  0  0
 16 51  1  0  0  0  0
 16 52  1  0  0  0  0
 17 21  1  0  0  0  0
 17 53  1  0  0  0  0
 17 54  1  0  0  0  0
 18 22  1  0  0  0  0
 18 23  1  0  0  0  0
 18 24  1  0  0  0  0
 19 23  1  0  0  0  0
 19 55  1  0  0  0  0
 19 56  1  0  0  0  0
 20 25  1  0  0  0  0
 20 26  1  0  0  0  0
 20 57  1  0  0  0  0
 21 58  1  0  0  0  0
 21 59  1  0  0  0  0
 22 60  1  0  0  0  0
 23 27  1  0  0  0  0
 23 61  1  0  0  0  0
 24 62  1  0  0  0  0
 24 63  1  0  0  0  0
 24 64  1  0  0  0  0
 25 28  1  0  0  0  0
 25 65  1  0  0  0  0
 25 66  1  0  0  0  0
 26 67  1  0  0  0  0
 26 68  1  0  0  0  0
 26 69  1  0  0  0  0
 27 70  1  0  0  0  0
 28 29  1  0  0  0  0
 28 71  1  0  0  0  0
 28 72  1  0  0  0  0
 29 30  2  0  0  0  0
 29 31  1  0  0  0  0
 30 73  1  0  0  0  0
 30 74  1  0  0  0  0
 31 32  1  0  0  0  0
 31 33  1  0  0  0  0
 31 75  1  0  0  0  0
 32 34  2  0  0  0  0
 32 35  1  0  0  0  0
 33 76  1  0  0  0  0
 33 77  1  0  0  0  0
 33 78  1  0  0  0  0
M  CHG  1  35  -1
M  END
>  <Code-name>
026

>  <Compound>
Antcin K

>  <Specie>
Antrodia

>  <Reference>
LAI et al., 2016

>  <Organism>
Anticancer Activity

>  <Smiles>
C[C@H](CCC([C@@H](C)C(O)=O)=C)[C@@H](CC1)[C@@](C)(C2)[C@@H]1C([C@H](C[C@H]([C@]1(C)CC[C@H]3O)[C@@]3(C)O)O)=C1C2=O

>  <MMFF94 Energy>
116.25

>  <Total Molweight>
488.662

>  <Molweight>
488.662

>  <Monoisotopic Mass>
488.313790

>  <cLogP>
4.3834

>  <cLogS>
-4.704

>  <H-Acceptors>
6

>  <H-Donors>
4

>  <Total Surface Area>
356.18

>  <Relative PSA>
0.22034

>  <Polar Surface Area>
115.06

>  <Druglikeness>
-1.5436

>  <Mutagenic>
none

>  <Tumorigenic>
none

>  <Reproductive Effective>
none

>  <Irritant>
none

>  <Nasty Functions>


>  <Shape Index>
0.48571

>  <Molecular Flexibility>
0.37619

>  <Molecular Complexity>
1.0083

>  <Fragments>
1

>  <Non-H Atoms>
35

>  <Non-C/H Atoms>
6

>  <Metal-Atoms>
0

>  <Electronegative Atoms>
6

>  <Stereo Centers>
10

>  <Rotatable Bonds>
6

>  <Rings Closures>
4

>  <Small Rings>
4

>  <Aromatic Rings>
0

>  <Aromatic Atoms>
0

>  <sp3-Atoms>
27

>  <Symmetric atoms>
0

>  <Amides>
0

>  <Amines>
0

>  <Alkyl-Amines>
0

>  <Aromatic Amines>
0

>  <Aromatic Nitrogens>
0

>  <Basic Nitrogens>
0

>  <Acidic Oxygens>
1

>  <Stereo Configuration>
this enantiomer

> <Gold.Version>
5.8.1

> <Gold.Id.Protein>
ID_2|Prot_COX2_5IKQ_Alig|mol2

> <Gold.Goldscore.Fitness>
13.5437

> <Gold.Goldscore.Internal.Vdw>
-23.7506

> <Gold.Goldscore.Internal.Torsion>
-3.4037

> <Gold.Goldscore.External.Vdw>
12.3018

> <Gold.Goldscore.Internal.HBond>
0.0000

> <Gold.Goldscore.External.HBond>
3.9054

> <Gold.Goldscore.Internal.Correction>
-19.8777

> <Gold.Goldscore.Hbonds>
donor molecule, donor type, donor heavy atom, donor atom, acceptor molecule, acceptor atom, score
      P1  H  8031  8036       L1     1  0.16
      P1  H  1361  1366       L1    35  0.60

> <Gold.Goldscore.Internal.Vdw.Weighted>
-23.7506

> <Gold.Goldscore.Internal.Torsion.Weighted>
-3.4037

> <Gold.Goldscore.External.Vdw.Weighted>
16.9149

> <Gold.Goldscore.Internal.HBond.Weighted>
0.0000

> <Gold.Goldscore.External.HBond.Weighted>
3.9054

> <Gold.Goldscore.Internal.Correction.Weighted>
-19.8777

> <Gold.Protein.RotatedTorsions>
[ 5077 5068 5067 5065 ] final -131.33 input  179.94 | X-H torsion
[ 5157 5152 5151 5148 ] final -131.03 input -179.92 | X-H torsion
[ 5185 5176 5175 5173 ] final  -82.68 input -179.99 | X-H torsion
[ 5712 5703 5702 5700 ] final   88.17 input  180.00 | X-H torsion
[ 8036 8031 8030 8027 ] final -134.16 input -179.94 | X-H torsion
[ 2749 2745 2743 2740 ] final  122.85 input  -60.05 | X-H torsion
[ 1366 1361 1360 1357 ] final  116.66 input  -60.09 | X-H torsion
[ 2556 2551 2550 2547 ] final  -58.61 input   59.97 | X-H torsion

> <Gold.Protein.ActiveResidues>
 PRO86   VAL89   HIS90   LEU93   THR94   ILE112  MET113  TYR115  VAL116  LEU117 
 THR118  SER119  ARG120  SER121  LEU123  ILE124  GLN192  SER194  PHE198  PHE201 
 ALA202  GLN203  PHE205  THR206  PHE209  PHE210  VAL228  ILE341  ILE343  VAL344 
 ILE345  GLU346  ASP347  TYR348  VAL349  GLN350  HIS351  LEU352  SER353  GLY354 
 TYR355  PHE357  LEU359  LYS360  GLU380  PHE381  ASN382  THR383  LEU384  TYR385 
 HIS386  TRP387  LEU390  VAL434  LEU507  ARG513  ALA516  ILE517  PHE518  GLY519 
 GLU520  THR521  MET522  VAL523  GLU524  VAL525  GLY526  ALA527  PRO528  PHE529 
 SER530  LEU531  LYS532  GLY533  LEU534  MET535  COH609 

> <Gold.Protein.RotatedAtoms>
   18.5254    6.6545    2.1491 H   0  0  0  0  0  0  0  0  0  0  0  0  # atno 1366 bound_to 1361
    4.7489   -9.0486    8.0333 H   0  0  0  0  0  0  0  0  0  0  0  0  # atno 2556 bound_to 2551
   -3.3907   -0.0750   -0.1985 H   0  0  0  0  0  0  0  0  0  0  0  0  # atno 2749 bound_to 2745
    2.1757   -2.1623    3.8245 H   0  0  0  0  0  0  0  0  0  0  0  0  # atno 5077 bound_to 5068
   11.7486   -1.4386    9.2722 H   0  0  0  0  0  0  0  0  0  0  0  0  # atno 5157 bound_to 5152
   16.5930   -0.2560    5.0110 H   0  0  0  0  0  0  0  0  0  0  0  0  # atno 5185 bound_to 5176
    2.9037   -0.8088    2.4886 H   0  0  0  0  0  0  0  0  0  0  0  0  # atno 5712 bound_to 5703
    6.1960    4.1618    3.6933 H   0  0  0  0  0  0  0  0  0  0  0  0  # atno 8036 bound_to 8031
    0.9659   -1.2703    3.7790 LP  0  0  0  0  0  0  0  0  0  0  0  0  # atno 8267 bound_to 5068
    0.9131   -2.8090    4.3233 LP  0  0  0  0  0  0  0  0  0  0  0  0  # atno 8268 bound_to 5068
   13.0921   -2.1122    9.1944 LP  0  0  0  0  0  0  0  0  0  0  0  0  # atno 8279 bound_to 5152
   11.6900   -2.9421    9.3035 LP  0  0  0  0  0  0  0  0  0  0  0  0  # atno 8280 bound_to 5152
   15.2293    0.3739    4.9638 LP  0  0  0  0  0  0  0  0  0  0  0  0  # atno 8281 bound_to 5176
   15.5022   -1.1828    4.5528 LP  0  0  0  0  0  0  0  0  0  0  0  0  # atno 8282 bound_to 5176
    1.4760   -0.6525    2.9313 LP  0  0  0  0  0  0  0  0  0  0  0  0  # atno 8283 bound_to 5703
    2.4104    0.6108    2.4868 LP  0  0  0  0  0  0  0  0  0  0  0  0  # atno 8284 bound_to 5703
    4.7807    3.9139    3.2514 LP  0  0  0  0  0  0  0  0  0  0  0  0  # atno 8309 bound_to 8031
    5.3971    5.4125    3.4537 LP  0  0  0  0  0  0  0  0  0  0  0  0  # atno 8310 bound_to 8031
   -4.2749    0.2334    0.9790 LP  0  0  0  0  0  0  0  0  0  0  0  0  # atno 8323 bound_to 2745
   -2.8752   -0.5965    1.1151 LP  0  0  0  0  0  0  0  0  0  0  0  0  # atno 8324 bound_to 2745
   17.4836    7.7142    2.3849 LP  0  0  0  0  0  0  0  0  0  0  0  0  # atno 8335 bound_to 1361
   18.5533    7.2531    3.5293 LP  0  0  0  0  0  0  0  0  0  0  0  0  # atno 8336 bound_to 1361
    4.5723   -9.1103    6.5402 LP  0  0  0  0  0  0  0  0  0  0  0  0  # atno 8342 bound_to 2551
    5.2770  -10.3070    7.3993 LP  0  0  0  0  0  0  0  0  0  0  0  0  # atno 8343 bound_to 2551

