
027|LMW3_p|sdf|27|dock2
  -GOLD-   6 722 4183D 1   1.00000     0.00000

 75 80  0  0  0  0  0  0  0  0  1 V2000
    7.8567    1.7844    1.8457 O   0  0  0  0  0  0  0  0  0  0  0  0
    7.9874    1.8759    3.2711 C   0  0  2  0  0  0  0  0  0  0  0  0
    7.5465    0.3988    1.6685 C   0  0  2  0  0  0  0  0  0  0  0  0
    7.6072    3.1426    3.7231 O   0  0  0  0  0  0  0  0  0  0  0  0
    9.3740    1.4310    3.6183 C   0  0  0  0  0  0  0  0  0  0  0  0
    7.1591    0.6791    3.8237 C   0  0  1  0  0  0  0  0  0  0  0  0
    6.5559    0.1052    2.6636 O   0  0  0  0  0  0  0  0  0  0  0  0
    8.8517   -0.4296    1.9541 C   0  0  1  0  0  0  0  0  0  0  0  0
    6.9432    0.1195    0.3013 C   0  0  0  0  0  0  0  0  0  0  0  0
   10.4337    2.0612    4.1542 C   0  0  0  0  0  0  0  0  0  0  0  0
    9.2651   -0.0677    3.4410 C   0  0  2  0  0  0  0  0  0  0  0  0
    8.1089   -0.3099    4.2789 O   0  0  0  0  0  0  0  0  0  0  0  0
    8.5163   -1.9337    1.7898 C   0  0  0  0  0  0  0  0  0  0  0  0
    9.9822   -0.0382    0.9672 C   0  0  0  0  0  0  0  0  0  0  0  0
    6.6537   -1.3724    0.1350 C   0  0  2  0  0  0  0  0  0  0  0  0
   11.6526    1.2976    4.6676 C   0  0  1  0  0  0  0  0  0  0  0  0
   10.4984    3.5054    4.5578 C   0  0  0  0  0  0  0  0  0  0  0  0
   10.4501   -0.8717    3.9985 C   0  0  0  0  0  0  0  0  0  0  0  0
    7.8732   -2.2476    0.4349 C   0  0  0  0  0  0  0  0  0  0  0  0
    6.2414   -1.6274   -1.2062 O   0  0  0  0  0  0  0  0  0  0  0  0
   12.0846    2.1959    5.8680 C   0  0  2  0  0  0  0  0  0  0  0  0
   11.2062   -0.1206    5.1069 C   0  0  0  0  0  0  0  0  0  0  0  0
   12.7213    1.2288    3.5598 C   0  0  0  0  0  0  0  0  0  0  0  0
   11.7950    3.6205    5.3481 C   0  0  0  0  0  0  0  0  0  0  0  0
   13.5379    2.0687    6.3994 C   0  0  1  0  0  0  0  0  0  0  0  0
   14.5271    2.5279    5.3452 C   0  0  0  0  0  0  0  0  0  0  0  0
   13.8004    2.8832    7.6673 C   0  0  0  0  0  0  0  0  0  0  0  0
   15.8594    2.4069    5.4649 C   0  0  0  0  0  0  0  0  0  0  0  0
   16.8458    2.8641    4.4108 C   0  0  1  0  0  0  0  0  0  0  0  0
   17.6589    4.0983    4.8943 C   0  0  0  0  0  0  0  0  0  0  0  0
   17.7407    1.6724    4.0504 C   0  0  0  0  0  0  0  0  0  0  0  0
   18.2713    4.8707    3.7165 C   0  0  0  0  0  0  0  0  0  0  0  0
   18.7821    3.7084    5.8625 C   0  0  0  0  0  0  0  0  0  0  0  0
    6.6432    3.2316    3.6626 H   0  0  0  0  0  0  0  0  0  0  0  0
    6.4693    0.9649    4.5902 H   0  0  0  0  0  0  0  0  0  0  0  0
    7.6312    0.4307   -0.4568 H   0  0  0  0  0  0  0  0  0  0  0  0
    6.0245    0.6609    0.2127 H   0  0  0  0  0  0  0  0  0  0  0  0
    7.8382   -2.2206    2.5661 H   0  0  0  0  0  0  0  0  0  0  0  0
    9.4348   -2.4795    1.8476 H   0  0  0  0  0  0  0  0  0  0  0  0
   10.7974   -0.7239    1.0687 H   0  0  0  0  0  0  0  0  0  0  0  0
   10.3203    0.9529    1.1870 H   0  0  0  0  0  0  0  0  0  0  0  0
    9.6089   -0.0737   -0.0349 H   0  0  0  0  0  0  0  0  0  0  0  0
    5.8848   -1.6210    0.8364 H   0  0  0  0  0  0  0  0  0  0  0  0
    9.6589    3.7659    5.1679 H   0  0  0  0  0  0  0  0  0  0  0  0
   10.4741    4.1655    3.7160 H   0  0  0  0  0  0  0  0  0  0  0  0
   11.1305   -1.0780    3.1990 H   0  0  0  0  0  0  0  0  0  0  0  0
   10.0585   -1.7711    4.4260 H   0  0  0  0  0  0  0  0  0  0  0  0
    7.5662   -3.2727    0.4324 H   0  0  0  0  0  0  0  0  0  0  0  0
    8.6042   -2.0480   -0.3205 H   0  0  0  0  0  0  0  0  0  0  0  0
    6.9580   -1.3902   -1.8154 H   0  0  0  0  0  0  0  0  0  0  0  0
   11.5456    1.8929    6.7413 H   0  0  0  0  0  0  0  0  0  0  0  0
   10.5648   -0.0296    5.9585 H   0  0  0  0  0  0  0  0  0  0  0  0
   12.0881   -0.6818    5.3356 H   0  0  0  0  0  0  0  0  0  0  0  0
   13.6423    0.8753    3.9741 H   0  0  0  0  0  0  0  0  0  0  0  0
   12.8679    2.2040    3.1446 H   0  0  0  0  0  0  0  0  0  0  0  0
   12.3958    0.5592    2.7913 H   0  0  0  0  0  0  0  0  0  0  0  0
   11.6763    4.3006    6.1656 H   0  0  0  0  0  0  0  0  0  0  0  0
   12.5963    3.9955    4.7464 H   0  0  0  0  0  0  0  0  0  0  0  0
   13.6648    1.0327    6.6347 H   0  0  0  0  0  0  0  0  0  0  0  0
   14.1542    2.9589    4.4848 H   0  0  0  0  0  0  0  0  0  0  0  0
   13.1030    3.6930    7.7218 H   0  0  0  0  0  0  0  0  0  0  0  0
   14.7969    3.2721    7.6415 H   0  0  0  0  0  0  0  0  0  0  0  0
   13.6848    2.2545    8.5254 H   0  0  0  0  0  0  0  0  0  0  0  0
   16.2328    1.9772    6.3256 H   0  0  0  0  0  0  0  0  0  0  0  0
   16.3281    3.1889    3.5327 H   0  0  0  0  0  0  0  0  0  0  0  0
   16.9595    4.7248    5.4074 H   0  0  0  0  0  0  0  0  0  0  0  0
   17.1438    0.8954    3.6206 H   0  0  0  0  0  0  0  0  0  0  0  0
   18.2203    1.3063    4.9340 H   0  0  0  0  0  0  0  0  0  0  0  0
   18.4825    1.9839    3.3450 H   0  0  0  0  0  0  0  0  0  0  0  0
   18.8745    4.2088    3.1309 H   0  0  0  0  0  0  0  0  0  0  0  0
   18.8776    5.6692    4.0903 H   0  0  0  0  0  0  0  0  0  0  0  0
   17.4883    5.2722    3.1076 H   0  0  0  0  0  0  0  0  0  0  0  0
   18.3867    3.0797    6.6328 H   0  0  0  0  0  0  0  0  0  0  0  0
   19.1974    4.5916    6.3011 H   0  0  0  0  0  0  0  0  0  0  0  0
   19.5458    3.1819    5.3292 H   0  0  0  0  0  0  0  0  0  0  0  0
  1  2  1  0  0  0  0
  2  4  1  0  0  0  0
  2  5  1  0  0  0  0
  2  6  1  0  0  0  0
  3  1  1  0  0  0  0
  3  7  1  0  0  0  0
  3  8  1  0  0  0  0
  3  9  1  0  0  0  0
  4 34  1  0  0  0  0
  5 10  2  0  0  0  0
  6 12  1  0  0  0  0
  6  7  1  0  0  0  0
  6 35  1  0  0  0  0
  8 13  1  0  0  0  0
  8 14  1  0  0  0  0
  8 11  1  0  0  0  0
  9 15  1  0  0  0  0
  9 36  1  0  0  0  0
  9 37  1  0  0  0  0
 10 16  1  0  0  0  0
 10 17  1  0  0  0  0
 11  5  1  0  0  0  0
 11 18  1  0  0  0  0
 11 12  1  0  0  0  0
 13 19  1  0  0  0  0
 13 38  1  0  0  0  0
 13 39  1  0  0  0  0
 14 40  1  0  0  0  0
 14 41  1  0  0  0  0
 14 42  1  0  0  0  0
 15 20  1  0  0  0  0
 15 19  1  0  0  0  0
 15 43  1  0  0  0  0
 16 21  1  0  0  0  0
 16 22  1  0  0  0  0
 16 23  1  0  0  0  0
 17 24  1  0  0  0  0
 17 44  1  0  0  0  0
 17 45  1  0  0  0  0
 18 22  1  0  0  0  0
 18 46  1  0  0  0  0
 18 47  1  0  0  0  0
 19 48  1  0  0  0  0
 19 49  1  0  0  0  0
 20 50  1  0  0  0  0
 21 25  1  0  0  0  0
 21 24  1  0  0  0  0
 21 51  1  0  0  0  0
 22 52  1  0  0  0  0
 22 53  1  0  0  0  0
 23 54  1  0  0  0  0
 23 55  1  0  0  0  0
 23 56  1  0  0  0  0
 24 57  1  0  0  0  0
 24 58  1  0  0  0  0
 25 26  1  0  0  0  0
 25 27  1  0  0  0  0
 25 59  1  0  0  0  0
 26 28  2  0  0  0  0
 26 60  1  0  0  0  0
 27 61  1  0  0  0  0
 27 62  1  0  0  0  0
 27 63  1  0  0  0  0
 28 29  1  0  0  0  0
 28 64  1  0  0  0  0
 29 30  1  0  0  0  0
 29 31  1  0  0  0  0
 29 65  1  0  0  0  0
 30 32  1  0  0  0  0
 30 33  1  0  0  0  0
 30 66  1  0  0  0  0
 31 67  1  0  0  0  0
 31 68  1  0  0  0  0
 31 69  1  0  0  0  0
 32 70  1  0  0  0  0
 32 71  1  0  0  0  0
 32 72  1  0  0  0  0
 33 73  1  0  0  0  0
 33 74  1  0  0  0  0
 33 75  1  0  0  0  0
M  END
>  <Code-name>
027

>  <Compound>
Eringiacetal A

>  <Specie>
Pleurotus eryngii

>  <Reference>
KIKUCHI, 2015

>  <Organism>
Cytotoxic Activity

>  <Smiles>
CC(C)[C@@H](C)/C=C/[C@@H](C)[C@@H](CC1)[C@@](C)(CC2)C1=C1[C@@]3(O)O[C@]4(C5)O[C@H]3O[C@@]12[C@@]4(C)CC[C@@H]5O

>  <MMFF94 Energy>
74.98

>  <Total Molweight>
458.636

>  <Molweight>
458.636

>  <Monoisotopic Mass>
458.303225

>  <cLogP>
4.8139

>  <cLogS>
-5.027

>  <H-Acceptors>
5

>  <H-Donors>
2

>  <Total Surface Area>
321.55

>  <Relative PSA>
0.17478

>  <Polar Surface Area>
68.15

>  <Druglikeness>
-0.18572

>  <Mutagenic>
none

>  <Tumorigenic>
none

>  <Reproductive Effective>
none

>  <Irritant>
none

>  <Nasty Functions>


>  <Shape Index>
0.48485

>  <Molecular Flexibility>
0.25903

>  <Molecular Complexity>
1.1169

>  <Fragments>
1

>  <Non-H Atoms>
33

>  <Non-C/H Atoms>
5

>  <Metal-Atoms>
0

>  <Electronegative Atoms>
5

>  <Stereo Centers>
10

>  <Rotatable Bonds>
4

>  <Rings Closures>
6

>  <Small Rings>
9

>  <Aromatic Rings>
0

>  <Aromatic Atoms>
0

>  <sp3-Atoms>
29

>  <Symmetric atoms>
1

>  <Amides>
0

>  <Amines>
0

>  <Alkyl-Amines>
0

>  <Aromatic Amines>
0

>  <Aromatic Nitrogens>
0

>  <Basic Nitrogens>
0

>  <Acidic Oxygens>
0

>  <Stereo Configuration>
this enantiomer

> <Gold.Version>
5.8.1

> <Gold.Id.Protein>
ID_2|Prot_COX2_5IKQ_Alig|mol2

> <Gold.Goldscore.Fitness>
18.5194

> <Gold.Goldscore.Internal.Vdw>
-33.6400

> <Gold.Goldscore.Internal.Torsion>
-5.1503

> <Gold.Goldscore.External.Vdw>
28.7443

> <Gold.Goldscore.Internal.HBond>
0.0000

> <Gold.Goldscore.External.HBond>
0.5589

> <Gold.Goldscore.Internal.Correction>
-17.2274

> <Gold.Goldscore.Hbonds>
donor molecule, donor type, donor heavy atom, donor atom, acceptor molecule, acceptor atom, score
      P1  H  5703  5712       L1     7  0.12
      L1  H     4    34       P1  8031  0.15
      L1  H    20    50       P1  7914  0.01

> <Gold.Goldscore.Internal.Vdw.Weighted>
-33.6400

> <Gold.Goldscore.Internal.Torsion.Weighted>
-5.1503

> <Gold.Goldscore.External.Vdw.Weighted>
39.5234

> <Gold.Goldscore.Internal.HBond.Weighted>
0.0000

> <Gold.Goldscore.External.HBond.Weighted>
0.5589

> <Gold.Goldscore.Internal.Correction.Weighted>
-17.2274

> <Gold.Protein.RotatedTorsions>
[ 5077 5068 5067 5065 ] final  120.92 input  179.94 | X-H torsion
[ 5157 5152 5151 5148 ] final  176.17 input -179.92 | X-H torsion
[ 5185 5176 5175 5173 ] final   64.59 input -179.99 | X-H torsion
[ 5712 5703 5702 5700 ] final  129.08 input  180.00 | X-H torsion
[ 8036 8031 8030 8027 ] final  -15.26 input -179.94 | X-H torsion
[ 2749 2745 2743 2740 ] final  113.28 input  -60.05 | X-H torsion
[ 1366 1361 1360 1357 ] final   -9.16 input  -60.09 | X-H torsion
[ 2556 2551 2550 2547 ] final  -27.55 input   59.97 | X-H torsion

> <Gold.Protein.ActiveResidues>
 PRO86   VAL89   HIS90   LEU93   THR94   ILE112  MET113  TYR115  VAL116  LEU117 
 THR118  SER119  ARG120  SER121  LEU123  ILE124  GLN192  SER194  PHE198  PHE201 
 ALA202  GLN203  PHE205  THR206  PHE209  PHE210  VAL228  ILE341  ILE343  VAL344 
 ILE345  GLU346  ASP347  TYR348  VAL349  GLN350  HIS351  LEU352  SER353  GLY354 
 TYR355  PHE357  LEU359  LYS360  GLU380  PHE381  ASN382  THR383  LEU384  TYR385 
 HIS386  TRP387  LEU390  VAL434  LEU507  ARG513  ALA516  ILE517  PHE518  GLY519 
 GLU520  THR521  MET522  VAL523  GLU524  VAL525  GLY526  ALA527  PRO528  PHE529 
 SER530  LEU531  LYS532  GLY533  LEU534  MET535  COH609 

> <Gold.Protein.RotatedAtoms>
   17.6319    7.6881    2.4864 H   0  0  0  0  0  0  0  0  0  0  0  0  # atno 1366 bound_to 1361
    4.9371   -9.4084    8.1530 H   0  0  0  0  0  0  0  0  0  0  0  0  # atno 2556 bound_to 2551
   -3.5047   -0.0089   -0.1986 H   0  0  0  0  0  0  0  0  0  0  0  0  # atno 2749 bound_to 2745
    1.2000   -1.3419    3.7934 H   0  0  0  0  0  0  0  0  0  0  0  0  # atno 5077 bound_to 5068
   12.4473   -1.3877    9.2135 H   0  0  0  0  0  0  0  0  0  0  0  0  # atno 5157 bound_to 5152
   15.2458   -0.8467    4.6609 H   0  0  0  0  0  0  0  0  0  0  0  0  # atno 5185 bound_to 5176
    3.0505   -0.2901    2.3753 H   0  0  0  0  0  0  0  0  0  0  0  0  # atno 5712 bound_to 5703
    5.4436    5.2599    3.4245 H   0  0  0  0  0  0  0  0  0  0  0  0  # atno 8036 bound_to 8031
    0.7606   -2.6808    4.3185 LP  0  0  0  0  0  0  0  0  0  0  0  0  # atno 8267 bound_to 5068
    2.2868   -2.3808    3.8211 LP  0  0  0  0  0  0  0  0  0  0  0  0  # atno 8268 bound_to 5068
   12.7259   -2.8667    9.2164 LP  0  0  0  0  0  0  0  0  0  0  0  0  # atno 8279 bound_to 5152
   11.2205   -2.2484    9.3517 LP  0  0  0  0  0  0  0  0  0  0  0  0  # atno 8280 bound_to 5152
   16.7209   -0.6485    4.8695 LP  0  0  0  0  0  0  0  0  0  0  0  0  # atno 8281 bound_to 5176
   15.6282    0.5487    5.0674 LP  0  0  0  0  0  0  0  0  0  0  0  0  # atno 8282 bound_to 5176
    1.9146   -1.1412    2.8695 LP  0  0  0  0  0  0  0  0  0  0  0  0  # atno 8283 bound_to 5703
    1.7957    0.4770    2.6845 LP  0  0  0  0  0  0  0  0  0  0  0  0  # atno 8284 bound_to 5703
    6.3085    4.0826    3.7792 LP  0  0  0  0  0  0  0  0  0  0  0  0  # atno 8309 bound_to 8031
    4.7721    3.9264    3.2484 LP  0  0  0  0  0  0  0  0  0  0  0  0  # atno 8310 bound_to 8031
   -4.2144    0.1806    1.1144 LP  0  0  0  0  0  0  0  0  0  0  0  0  # atno 8323 bound_to 2745
   -2.7991   -0.6229    0.9798 LP  0  0  0  0  0  0  0  0  0  0  0  0  # atno 8324 bound_to 2745
   18.6157    7.1809    3.5057 LP  0  0  0  0  0  0  0  0  0  0  0  0  # atno 8335 bound_to 1361
   18.4900    6.5498    2.0049 LP  0  0  0  0  0  0  0  0  0  0  0  0  # atno 8336 bound_to 1361
    4.4650   -8.7546    6.8826 LP  0  0  0  0  0  0  0  0  0  0  0  0  # atno 8342 bound_to 2551
    5.1592  -10.2323    6.9137 LP  0  0  0  0  0  0  0  0  0  0  0  0  # atno 8343 bound_to 2551

