
028|LMW3_p|sdf|28|dock9
  -GOLD-   6 722 4213D 1   1.00000     0.00000

 72 75  0  0  0  0  0  0  0  0  1 V2000
    4.4030   -0.7135    0.4074 O   0  0  0  0  0  0  0  0  0  0  0  0
    5.7526   -0.4305    0.7661 C   0  0  2  0  0  0  0  0  0  0  0  0
    5.9318   -0.6338    2.2716 C   0  0  0  0  0  0  0  0  0  0  0  0
    6.1070    0.9914    0.3388 C   0  0  0  0  0  0  0  0  0  0  0  0
    7.3168   -0.2039    2.7772 C   0  0  2  0  0  0  0  0  0  0  0  0
    7.4958    1.4055    0.8182 C   0  0  0  0  0  0  0  0  0  0  0  0
    7.6350    1.2438    2.3463 C   0  0  2  0  0  0  0  0  0  0  0  0
    8.4118   -1.1900    2.3272 C   0  0  0  0  0  0  0  0  0  0  0  0
    9.0361    1.6986    2.8352 C   0  0  2  0  0  0  0  0  0  0  0  0
    9.7963   -0.6925    2.6091 C   0  0  0  0  0  0  0  0  0  0  0  0
   10.0823    0.5927    2.8718 C   0  0  0  0  0  0  0  0  0  0  0  0
    8.9632    2.3774    4.2217 C   0  0  0  0  0  0  0  0  0  0  0  0
   11.4351    1.1156    3.2825 C   0  0  1  0  0  0  0  0  0  0  0  0
   10.3450    2.8415    4.7319 C   0  0  0  0  0  0  0  0  0  0  0  0
   11.3932    1.7040    4.7234 C   0  0  2  0  0  0  0  0  0  0  0  0
   12.6733    0.2269    3.2948 C   0  0  0  0  0  0  0  0  0  0  0  0
   12.8806    2.1542    4.8613 C   0  0  2  0  0  0  0  0  0  0  0  0
   11.0253    0.6484    5.7969 C   0  0  0  0  0  0  0  0  0  0  0  0
   13.6667    0.9925    4.1793 C   0  0  0  0  0  0  0  0  0  0  0  0
   13.4458    2.5030    6.2659 C   0  0  1  0  0  0  0  0  0  0  0  0
   14.9612    2.6376    6.1992 C   0  0  0  0  0  0  0  0  0  0  0  0
   12.7833    3.7327    6.8967 C   0  0  0  0  0  0  0  0  0  0  0  0
   15.6927    3.0376    5.1449 C   0  0  0  0  0  0  0  0  0  0  0  0
   17.2044    3.1400    5.1611 C   0  0  2  0  0  0  0  0  0  0  0  0
   17.6935    4.4022    4.3974 C   0  0  0  0  0  0  0  0  0  0  0  0
   17.8010    1.8261    4.6454 C   0  0  0  0  0  0  0  0  0  0  0  0
   18.0448    4.1528    2.9263 C   0  0  0  0  0  0  0  0  0  0  0  0
   18.8881    5.0560    5.1017 C   0  0  0  0  0  0  0  0  0  0  0  0
    4.3137   -0.6918   -0.5583 H   0  0  0  0  0  0  0  0  0  0  0  0
    6.4187   -1.0990    0.2619 H   0  0  0  0  0  0  0  0  0  0  0  0
    5.7953   -1.6716    2.4937 H   0  0  0  0  0  0  0  0  0  0  0  0
    5.2075   -0.0198    2.7649 H   0  0  0  0  0  0  0  0  0  0  0  0
    5.3849    1.6654    0.7499 H   0  0  0  0  0  0  0  0  0  0  0  0
    6.1041    1.0246   -0.7307 H   0  0  0  0  0  0  0  0  0  0  0  0
    7.2988   -0.2251    3.8468 H   0  0  0  0  0  0  0  0  0  0  0  0
    7.6621    2.4305    0.5599 H   0  0  0  0  0  0  0  0  0  0  0  0
    8.2178    0.7729    0.3454 H   0  0  0  0  0  0  0  0  0  0  0  0
    6.9170    1.8835    2.8156 H   0  0  0  0  0  0  0  0  0  0  0  0
    8.3146   -1.3505    1.2738 H   0  0  0  0  0  0  0  0  0  0  0  0
    8.2767   -2.0947    2.8823 H   0  0  0  0  0  0  0  0  0  0  0  0
    9.3560    2.4044    2.0974 H   0  0  0  0  0  0  0  0  0  0  0  0
   10.5714   -1.3737    2.6010 H   0  0  0  0  0  0  0  0  0  0  0  0
    8.5559    1.6798    4.9234 H   0  0  0  0  0  0  0  0  0  0  0  0
    8.3464    3.2463    4.1239 H   0  0  0  0  0  0  0  0  0  0  0  0
   11.5730    1.7956    2.4680 H   0  0  0  0  0  0  0  0  0  0  0  0
   10.2375    3.2014    5.7338 H   0  0  0  0  0  0  0  0  0  0  0  0
   10.6934    3.6090    4.0728 H   0  0  0  0  0  0  0  0  0  0  0  0
   13.0621    0.1017    2.3058 H   0  0  0  0  0  0  0  0  0  0  0  0
   12.4708   -0.7588    3.6585 H   0  0  0  0  0  0  0  0  0  0  0  0
   12.9825    3.1191    4.4101 H   0  0  0  0  0  0  0  0  0  0  0  0
   10.1118    0.1638    5.5222 H   0  0  0  0  0  0  0  0  0  0  0  0
   10.9023    1.1307    6.7441 H   0  0  0  0  0  0  0  0  0  0  0  0
   11.8079   -0.0782    5.8657 H   0  0  0  0  0  0  0  0  0  0  0  0
   14.4599    1.3890    3.5806 H   0  0  0  0  0  0  0  0  0  0  0  0
   14.0976    0.3443    4.9137 H   0  0  0  0  0  0  0  0  0  0  0  0
   13.2034    1.6911    6.9193 H   0  0  0  0  0  0  0  0  0  0  0  0
   15.4830    2.3956    7.0560 H   0  0  0  0  0  0  0  0  0  0  0  0
   12.6536    4.4896    6.1516 H   0  0  0  0  0  0  0  0  0  0  0  0
   13.4043    4.1087    7.6827 H   0  0  0  0  0  0  0  0  0  0  0  0
   11.8293    3.4584    7.2962 H   0  0  0  0  0  0  0  0  0  0  0  0
   15.1968    3.2892    4.2755 H   0  0  0  0  0  0  0  0  0  0  0  0
   17.5553    3.2748    6.1629 H   0  0  0  0  0  0  0  0  0  0  0  0
   16.8542    5.0657    4.4083 H   0  0  0  0  0  0  0  0  0  0  0  0
   17.4624    1.0163    5.2572 H   0  0  0  0  0  0  0  0  0  0  0  0
   18.8689    1.8799    4.6838 H   0  0  0  0  0  0  0  0  0  0  0  0
   17.4881    1.6647    3.6350 H   0  0  0  0  0  0  0  0  0  0  0  0
   18.8772    3.4832    2.8670 H   0  0  0  0  0  0  0  0  0  0  0  0
   18.2994    5.0807    2.4582 H   0  0  0  0  0  0  0  0  0  0  0  0
   17.2030    3.7207    2.4269 H   0  0  0  0  0  0  0  0  0  0  0  0
   18.5926    5.3810    6.0775 H   0  0  0  0  0  0  0  0  0  0  0  0
   19.2216    5.8976    4.5313 H   0  0  0  0  0  0  0  0  0  0  0  0
   19.6837    4.3457    5.1880 H   0  0  0  0  0  0  0  0  0  0  0  0
  1  2  1  0  0  0  0
  1 29  1  0  0  0  0
  2  3  1  0  0  0  0
  2  4  1  0  0  0  0
  2 30  1  0  0  0  0
  3  5  1  0  0  0  0
  3 31  1  0  0  0  0
  3 32  1  0  0  0  0
  4  6  1  0  0  0  0
  4 33  1  0  0  0  0
  4 34  1  0  0  0  0
  5  7  1  0  0  0  0
  5  8  1  0  0  0  0
  5 35  1  0  0  0  0
  6  7  1  0  0  0  0
  6 36  1  0  0  0  0
  6 37  1  0  0  0  0
  7  9  1  0  0  0  0
  7 38  1  0  0  0  0
  8 10  1  0  0  0  0
  8 39  1  0  0  0  0
  8 40  1  0  0  0  0
  9 11  1  0  0  0  0
  9 12  1  0  0  0  0
  9 41  1  0  0  0  0
 10 11  2  0  0  0  0
 10 42  1  0  0  0  0
 11 13  1  0  0  0  0
 12 14  1  0  0  0  0
 12 43  1  0  0  0  0
 12 44  1  0  0  0  0
 13 15  1  0  0  0  0
 13 16  1  0  0  0  0
 13 45  1  0  0  0  0
 14 15  1  0  0  0  0
 14 46  1  0  0  0  0
 14 47  1  0  0  0  0
 15 17  1  0  0  0  0
 15 18  1  0  0  0  0
 16 19  1  0  0  0  0
 16 48  1  0  0  0  0
 16 49  1  0  0  0  0
 17 20  1  0  0  0  0
 17 19  1  0  0  0  0
 17 50  1  0  0  0  0
 18 51  1  0  0  0  0
 18 52  1  0  0  0  0
 18 53  1  0  0  0  0
 19 54  1  0  0  0  0
 19 55  1  0  0  0  0
 20 21  1  0  0  0  0
 20 22  1  0  0  0  0
 20 56  1  0  0  0  0
 21 23  2  0  0  0  0
 21 57  1  0  0  0  0
 22 58  1  0  0  0  0
 22 59  1  0  0  0  0
 22 60  1  0  0  0  0
 23 24  1  0  0  0  0
 23 61  1  0  0  0  0
 24 25  1  0  0  0  0
 24 26  1  0  0  0  0
 24 62  1  0  0  0  0
 25 27  1  0  0  0  0
 25 28  1  0  0  0  0
 25 63  1  0  0  0  0
 26 64  1  0  0  0  0
 26 65  1  0  0  0  0
 26 66  1  0  0  0  0
 27 67  1  0  0  0  0
 27 68  1  0  0  0  0
 27 69  1  0  0  0  0
 28 70  1  0  0  0  0
 28 71  1  0  0  0  0
 28 72  1  0  0  0  0
M  END
>  <Code-name>
028

>  <Compound>
Estelasterol

>  <Specie>
Lentinus

>  <Reference>
FILHO, 2009

>  <Organism>
Cytotoxic Activity

>  <Smiles>
CC(C)[C@H](C)/C=C/[C@@H](C)[C@@H](CC1)[C@]2(C)[C@@H]1C1=CC[C@H](C[C@H](CC3)O)[C@H]3[C@H]1CC2

>  <MMFF94 Energy>
83.254

>  <Total Molweight>
384.645

>  <Molweight>
384.645

>  <Monoisotopic Mass>
384.339215

>  <cLogP>
6.8171

>  <cLogS>
-5.994

>  <H-Acceptors>
1

>  <H-Donors>
1

>  <Total Surface Area>
311.35

>  <Relative PSA>
0.042075

>  <Polar Surface Area>
20.23

>  <Druglikeness>
-1.2005

>  <Mutagenic>
none

>  <Tumorigenic>
none

>  <Reproductive Effective>
none

>  <Irritant>
none

>  <Nasty Functions>


>  <Shape Index>
0.57143

>  <Molecular Flexibility>
0.3112

>  <Molecular Complexity>
0.90851

>  <Fragments>
1

>  <Non-H Atoms>
28

>  <Non-C/H Atoms>
1

>  <Metal-Atoms>
0

>  <Electronegative Atoms>
1

>  <Stereo Centers>
9

>  <Rotatable Bonds>
4

>  <Rings Closures>
4

>  <Small Rings>
4

>  <Aromatic Rings>
0

>  <Aromatic Atoms>
0

>  <sp3-Atoms>
24

>  <Symmetric atoms>
1

>  <Amides>
0

>  <Amines>
0

>  <Alkyl-Amines>
0

>  <Aromatic Amines>
0

>  <Aromatic Nitrogens>
0

>  <Basic Nitrogens>
0

>  <Acidic Oxygens>
0

>  <Stereo Configuration>
this enantiomer

> <Gold.Version>
5.8.1

> <Gold.Id.Protein>
ID_2|Prot_COX2_5IKQ_Alig|mol2

> <Gold.Goldscore.Fitness>
8.7691

> <Gold.Goldscore.Internal.Vdw>
-10.2620

> <Gold.Goldscore.Internal.Torsion>
-4.1526

> <Gold.Goldscore.External.Vdw>
10.1335

> <Gold.Goldscore.Internal.HBond>
0.0000

> <Gold.Goldscore.External.HBond>
0.0000

> <Gold.Goldscore.Internal.Correction>
-9.2502

> <Gold.Goldscore.Internal.Vdw.Weighted>
-10.2620

> <Gold.Goldscore.Internal.Torsion.Weighted>
-4.1526

> <Gold.Goldscore.External.Vdw.Weighted>
13.9336

> <Gold.Goldscore.Internal.HBond.Weighted>
0.0000

> <Gold.Goldscore.External.HBond.Weighted>
0.0000

> <Gold.Goldscore.Internal.Correction.Weighted>
-9.2502

> <Gold.Protein.RotatedTorsions>
[ 5077 5068 5067 5065 ] final -150.25 input  179.94 | X-H torsion
[ 5157 5152 5151 5148 ] final  171.05 input -179.92 | X-H torsion
[ 5185 5176 5175 5173 ] final   -8.81 input -179.99 | X-H torsion
[ 5712 5703 5702 5700 ] final   67.32 input  180.00 | X-H torsion
[ 8036 8031 8030 8027 ] final  145.39 input -179.94 | X-H torsion
[ 2749 2745 2743 2740 ] final   -8.14 input  -60.05 | X-H torsion
[ 1366 1361 1360 1357 ] final   51.40 input  -60.09 | X-H torsion
[ 2556 2551 2550 2547 ] final  -57.78 input   59.97 | X-H torsion

> <Gold.Protein.ActiveResidues>
 PRO86   VAL89   HIS90   LEU93   THR94   ILE112  MET113  TYR115  VAL116  LEU117 
 THR118  SER119  ARG120  SER121  LEU123  ILE124  GLN192  SER194  PHE198  PHE201 
 ALA202  GLN203  PHE205  THR206  PHE209  PHE210  VAL228  ILE341  ILE343  VAL344 
 ILE345  GLU346  ASP347  TYR348  VAL349  GLN350  HIS351  LEU352  SER353  GLY354 
 TYR355  PHE357  LEU359  LYS360  GLU380  PHE381  ASN382  THR383  LEU384  TYR385 
 HIS386  TRP387  LEU390  VAL434  LEU507  ARG513  ALA516  ILE517  PHE518  GLY519 
 GLU520  THR521  MET522  VAL523  GLU524  VAL525  GLY526  ALA527  PRO528  PHE529 
 SER530  LEU531  LYS532  GLY533  LEU534  MET535  COH609 

> <Gold.Protein.RotatedAtoms>
   17.8814    7.1700    1.9345 H   0  0  0  0  0  0  0  0  0  0  0  0  # atno 1366 bound_to 1361
    4.7539   -9.0571    8.0392 H   0  0  0  0  0  0  0  0  0  0  0  0  # atno 2556 bound_to 2551
   -4.0704    0.1562    1.0468 H   0  0  0  0  0  0  0  0  0  0  0  0  # atno 2749 bound_to 2745
    2.1426   -1.9165    3.7483 H   0  0  0  0  0  0  0  0  0  0  0  0  # atno 5077 bound_to 5068
   12.5112   -1.4173    9.2077 H   0  0  0  0  0  0  0  0  0  0  0  0  # atno 5157 bound_to 5152
   16.1631   -1.0500    4.7252 H   0  0  0  0  0  0  0  0  0  0  0  0  # atno 5185 bound_to 5176
    2.7034   -0.9938    2.5722 H   0  0  0  0  0  0  0  0  0  0  0  0  # atno 5712 bound_to 5703
    5.3328    3.7095    3.3977 H   0  0  0  0  0  0  0  0  0  0  0  0  # atno 8036 bound_to 8031
    0.7272   -1.4303    3.8958 LP  0  0  0  0  0  0  0  0  0  0  0  0  # atno 8267 bound_to 5068
    1.1914   -2.9434    4.2978 LP  0  0  0  0  0  0  0  0  0  0  0  0  # atno 8268 bound_to 5068
   12.6571   -2.9152    9.2217 LP  0  0  0  0  0  0  0  0  0  0  0  0  # atno 8279 bound_to 5152
   11.2129   -2.1645    9.3533 LP  0  0  0  0  0  0  0  0  0  0  0  0  # atno 8280 bound_to 5152
   16.3528    0.3881    5.1182 LP  0  0  0  0  0  0  0  0  0  0  0  0  # atno 8281 bound_to 5176
   14.8949   -0.2437    4.7415 LP  0  0  0  0  0  0  0  0  0  0  0  0  # atno 8282 bound_to 5176
    1.4026   -0.3198    2.9075 LP  0  0  0  0  0  0  0  0  0  0  0  0  # atno 8283 bound_to 5703
    2.7243    0.5002    2.4101 LP  0  0  0  0  0  0  0  0  0  0  0  0  # atno 8284 bound_to 5703
    4.8581    5.1301    3.2691 LP  0  0  0  0  0  0  0  0  0  0  0  0  # atno 8309 bound_to 8031
    6.3554    4.7390    3.7906 LP  0  0  0  0  0  0  0  0  0  0  0  0  # atno 8310 bound_to 8031
   -2.7884   -0.6260    0.9562 LP  0  0  0  0  0  0  0  0  0  0  0  0  # atno 8323 bound_to 2745
   -3.5477   -0.0139   -0.3536 LP  0  0  0  0  0  0  0  0  0  0  0  0  # atno 8324 bound_to 2745
   17.8995    7.7765    3.3114 LP  0  0  0  0  0  0  0  0  0  0  0  0  # atno 8335 bound_to 1361
   18.9078    6.5741    2.8594 LP  0  0  0  0  0  0  0  0  0  0  0  0  # atno 8336 bound_to 1361
    4.5681   -9.0990    6.5466 LP  0  0  0  0  0  0  0  0  0  0  0  0  # atno 8342 bound_to 2551
    5.2752  -10.3082    7.3858 LP  0  0  0  0  0  0  0  0  0  0  0  0  # atno 8343 bound_to 2551

