
029|LMW3_p|sdf|29|dock2
  -GOLD-   6 722 4233D 1   1.00000     0.00000

 82 85  0  0  0  0  0  0  0  0  1 V2000
    4.8492   -1.1776    1.8537 O   0  0  0  0  0  0  0  0  0  0  0  0
    6.0947   -0.8465    2.4660 C   0  0  2  0  0  0  0  0  0  0  0  0
    6.3697    0.6861    2.4275 C   0  0  0  0  0  0  0  0  0  0  0  0
    7.1708   -1.6749    1.7733 C   0  0  0  0  0  0  0  0  0  0  0  0
    7.8463    0.9541    2.9103 C   0  0  1  0  0  0  0  0  0  0  0  0
    5.3831    1.3618    3.4237 C   0  0  0  0  0  0  0  0  0  0  0  0
    6.0377    1.2785    1.0422 C   0  0  0  0  0  0  0  0  0  0  0  0
    8.5546   -1.4045    2.3507 C   0  0  0  0  0  0  0  0  0  0  0  0
    8.9839    0.0814    2.2556 C   0  0  2  0  0  0  0  0  0  0  0  0
    8.2617    2.4339    2.9100 C   0  0  0  0  0  0  0  0  0  0  0  0
   10.3138    0.3433    3.0162 C   0  0  0  0  0  0  0  0  0  0  0  0
    9.2847    0.4279    0.7776 C   0  0  0  0  0  0  0  0  0  0  0  0
    9.5424    2.6456    3.7182 C   0  0  0  0  0  0  0  0  0  0  0  0
   10.5472    1.5188    3.6559 C   0  0  0  0  0  0  0  0  0  0  0  0
   11.3744   -0.7628    2.9664 C   0  0  0  0  0  0  0  0  0  0  0  0
   11.8509    1.7212    4.4206 C   0  0  1  0  0  0  0  0  0  0  0  0
   12.7454   -0.4736    3.6157 C   0  0  0  0  0  0  0  0  0  0  0  0
   13.0475    1.0288    3.6622 C   0  0  2  0  0  0  0  0  0  0  0  0
   12.4072    3.1446    4.5848 C   0  0  0  0  0  0  0  0  0  0  0  0
   11.5671    1.1734    5.8550 C   0  0  0  0  0  0  0  0  0  0  0  0
   14.2657    1.4752    4.5295 C   0  0  2  0  0  0  0  0  0  0  0  0
   13.2340    1.5454    2.2010 C   0  0  0  0  0  0  0  0  0  0  0  0
   13.9051    2.9489    4.8815 C   0  0  0  0  0  0  0  0  0  0  0  0
   15.7112    1.3454    3.9639 C   0  0  1  0  0  0  0  0  0  0  0  0
   16.7990    1.6984    5.0244 C   0  0  2  0  0  0  0  0  0  0  0  0
   15.9819   -0.0384    3.3566 C   0  0  0  0  0  0  0  0  0  0  0  0
   16.3038    2.7653    5.8492 O   0  0  0  0  0  0  0  0  0  0  0  0
   18.1508    2.1368    4.4296 C   0  0  0  0  0  0  0  0  0  0  0  0
   18.0041    3.3740    3.5773 C   0  0  0  0  0  0  0  0  0  0  0  0
   18.4209    3.5646    2.3101 C   0  0  0  0  0  0  0  0  0  0  0  0
   19.1705    2.5595    1.4804 C   0  0  0  0  0  0  0  0  0  0  0  0
   18.1577    4.8722    1.6090 C   0  0  0  0  0  0  0  0  0  0  0  0
    4.1247   -0.9822    2.4684 H   0  0  0  0  0  0  0  0  0  0  0  0
    6.0838   -1.0859    3.5087 H   0  0  0  0  0  0  0  0  0  0  0  0
    7.1772   -1.4322    0.7313 H   0  0  0  0  0  0  0  0  0  0  0  0
    6.9435   -2.7092    1.9268 H   0  0  0  0  0  0  0  0  0  0  0  0
    7.7687    0.6185    3.9233 H   0  0  0  0  0  0  0  0  0  0  0  0
    5.4575    2.4254    3.3331 H   0  0  0  0  0  0  0  0  0  0  0  0
    5.6304    1.0709    4.4231 H   0  0  0  0  0  0  0  0  0  0  0  0
    4.3832    1.0537    3.1996 H   0  0  0  0  0  0  0  0  0  0  0  0
    5.0044    1.5545    1.0106 H   0  0  0  0  0  0  0  0  0  0  0  0
    6.2351    0.5483    0.2854 H   0  0  0  0  0  0  0  0  0  0  0  0
    6.6433    2.1436    0.8698 H   0  0  0  0  0  0  0  0  0  0  0  0
    9.2666   -1.9977    1.8159 H   0  0  0  0  0  0  0  0  0  0  0  0
    8.5167   -1.6555    3.3901 H   0  0  0  0  0  0  0  0  0  0  0  0
    7.4755    3.0177    3.3413 H   0  0  0  0  0  0  0  0  0  0  0  0
    8.4431    2.7361    1.8997 H   0  0  0  0  0  0  0  0  0  0  0  0
    8.4704    0.9898    0.3702 H   0  0  0  0  0  0  0  0  0  0  0  0
    9.4102   -0.4753    0.2179 H   0  0  0  0  0  0  0  0  0  0  0  0
   10.1816    1.0089    0.7229 H   0  0  0  0  0  0  0  0  0  0  0  0
    9.2661    2.7841    4.7426 H   0  0  0  0  0  0  0  0  0  0  0  0
   10.0268    3.4943    3.2823 H   0  0  0  0  0  0  0  0  0  0  0  0
   11.5507   -0.9901    1.9357 H   0  0  0  0  0  0  0  0  0  0  0  0
   10.9618   -1.5590    3.5500 H   0  0  0  0  0  0  0  0  0  0  0  0
   13.5082   -0.9629    3.0470 H   0  0  0  0  0  0  0  0  0  0  0  0
   12.7212   -0.8394    4.6210 H   0  0  0  0  0  0  0  0  0  0  0  0
   11.9244    3.6468    5.3969 H   0  0  0  0  0  0  0  0  0  0  0  0
   12.2427    3.7457    3.7150 H   0  0  0  0  0  0  0  0  0  0  0  0
   12.4908    1.0634    6.3839 H   0  0  0  0  0  0  0  0  0  0  0  0
   11.0812    0.2228    5.7841 H   0  0  0  0  0  0  0  0  0  0  0  0
   10.9350    1.8589    6.3800 H   0  0  0  0  0  0  0  0  0  0  0  0
   14.3650    0.7936    5.3482 H   0  0  0  0  0  0  0  0  0  0  0  0
   12.3714    1.2926    1.6206 H   0  0  0  0  0  0  0  0  0  0  0  0
   14.1005    1.0896    1.7693 H   0  0  0  0  0  0  0  0  0  0  0  0
   13.3577    2.6082    2.2115 H   0  0  0  0  0  0  0  0  0  0  0  0
   14.0993    3.1348    5.9172 H   0  0  0  0  0  0  0  0  0  0  0  0
   14.4950    3.6289    4.3031 H   0  0  0  0  0  0  0  0  0  0  0  0
   15.7774    2.0658    3.1756 H   0  0  0  0  0  0  0  0  0  0  0  0
   16.9836    0.8003    5.5760 H   0  0  0  0  0  0  0  0  0  0  0  0
   15.5142   -0.7895    3.9583 H   0  0  0  0  0  0  0  0  0  0  0  0
   17.0369   -0.2133    3.3239 H   0  0  0  0  0  0  0  0  0  0  0  0
   15.5830   -0.0767    2.3645 H   0  0  0  0  0  0  0  0  0  0  0  0
   16.8648    2.8531    6.6355 H   0  0  0  0  0  0  0  0  0  0  0  0
   18.5393    1.3430    3.8265 H   0  0  0  0  0  0  0  0  0  0  0  0
   18.8160    2.3619    5.2369 H   0  0  0  0  0  0  0  0  0  0  0  0
   17.5248    4.1734    4.0203 H   0  0  0  0  0  0  0  0  0  0  0  0
   19.9622    2.1359    2.0625 H   0  0  0  0  0  0  0  0  0  0  0  0
   19.5809    3.0434    0.6188 H   0  0  0  0  0  0  0  0  0  0  0  0
   18.5020    1.7840    1.1695 H   0  0  0  0  0  0  0  0  0  0  0  0
   19.0880    5.3558    1.3953 H   0  0  0  0  0  0  0  0  0  0  0  0
   17.5648    5.5018    2.2390 H   0  0  0  0  0  0  0  0  0  0  0  0
   17.6335    4.6873    0.6946 H   0  0  0  0  0  0  0  0  0  0  0  0
  1  2  1  0  0  0  0
  1 33  1  0  0  0  0
  2  3  1  0  0  0  0
  2  4  1  0  0  0  0
  2 34  1  0  0  0  0
  3  5  1  0  0  0  0
  3  6  1  0  0  0  0
  3  7  1  0  0  0  0
  4  8  1  0  0  0  0
  4 35  1  0  0  0  0
  4 36  1  0  0  0  0
  5  9  1  0  0  0  0
  5 10  1  0  0  0  0
  5 37  1  0  0  0  0
  6 38  1  0  0  0  0
  6 39  1  0  0  0  0
  6 40  1  0  0  0  0
  7 41  1  0  0  0  0
  7 42  1  0  0  0  0
  7 43  1  0  0  0  0
  8  9  1  0  0  0  0
  8 44  1  0  0  0  0
  8 45  1  0  0  0  0
  9 11  1  0  0  0  0
  9 12  1  0  0  0  0
 10 13  1  0  0  0  0
 10 46  1  0  0  0  0
 10 47  1  0  0  0  0
 11 14  2  0  0  0  0
 11 15  1  0  0  0  0
 12 48  1  0  0  0  0
 12 49  1  0  0  0  0
 12 50  1  0  0  0  0
 13 14  1  0  0  0  0
 13 51  1  0  0  0  0
 13 52  1  0  0  0  0
 14 16  1  0  0  0  0
 15 17  1  0  0  0  0
 15 53  1  0  0  0  0
 15 54  1  0  0  0  0
 16 18  1  0  0  0  0
 16 19  1  0  0  0  0
 16 20  1  0  0  0  0
 17 18  1  0  0  0  0
 17 55  1  0  0  0  0
 17 56  1  0  0  0  0
 18 21  1  0  0  0  0
 18 22  1  0  0  0  0
 19 23  1  0  0  0  0
 19 57  1  0  0  0  0
 19 58  1  0  0  0  0
 20 59  1  0  0  0  0
 20 60  1  0  0  0  0
 20 61  1  0  0  0  0
 21 24  1  0  0  0  0
 21 23  1  0  0  0  0
 21 62  1  0  0  0  0
 22 63  1  0  0  0  0
 22 64  1  0  0  0  0
 22 65  1  0  0  0  0
 23 66  1  0  0  0  0
 23 67  1  0  0  0  0
 24 25  1  0  0  0  0
 24 26  1  0  0  0  0
 24 68  1  0  0  0  0
 25 27  1  0  0  0  0
 25 28  1  0  0  0  0
 25 69  1  0  0  0  0
 26 70  1  0  0  0  0
 26 71  1  0  0  0  0
 26 72  1  0  0  0  0
 27 73  1  0  0  0  0
 28 29  1  0  0  0  0
 28 74  1  0  0  0  0
 28 75  1  0  0  0  0
 29 30  2  0  0  0  0
 29 76  1  0  0  0  0
 30 31  1  0  0  0  0
 30 32  1  0  0  0  0
 31 77  1  0  0  0  0
 31 78  1  0  0  0  0
 31 79  1  0  0  0  0
 32 80  1  0  0  0  0
 32 81  1  0  0  0  0
 32 82  1  0  0  0  0
M  END
>  <Code-name>
029

>  <Compound>
Inotodiol

>  <Specie>
Cogumelo chaga

>  <Reference>
NGUYET et al., 2018

>  <Organism>
Antitumoral Activity

>  <Smiles>
C[C@H]([C@@H](CC=C(C)C)O)[C@@H](CC1)[C@@](C)(CC2)[C@]1(C)C(CC1)=C2[C@@](C)(CC2)[C@@H]1C(C)(C)[C@H]2O

>  <MMFF94 Energy>
138.3

>  <Total Molweight>
442.725

>  <Molweight>
442.725

>  <Monoisotopic Mass>
442.381080

>  <cLogP>
7.3998

>  <cLogS>
-6.054

>  <H-Acceptors>
2

>  <H-Donors>
2

>  <Total Surface Area>
345.89

>  <Relative PSA>
0.075747

>  <Polar Surface Area>
40.46

>  <Druglikeness>
-1.1653

>  <Mutagenic>
none

>  <Tumorigenic>
none

>  <Reproductive Effective>
high

>  <Irritant>
none

>  <Nasty Functions>


>  <Shape Index>
0.5

>  <Molecular Flexibility>
0.30387

>  <Molecular Complexity>
0.99609

>  <Fragments>
1

>  <Non-H Atoms>
32

>  <Non-C/H Atoms>
2

>  <Metal-Atoms>
0

>  <Electronegative Atoms>
2

>  <Stereo Centers>
8

>  <Rotatable Bonds>
4

>  <Rings Closures>
4

>  <Small Rings>
4

>  <Aromatic Rings>
0

>  <Aromatic Atoms>
0

>  <sp3-Atoms>
28

>  <Symmetric atoms>
2

>  <Amides>
0

>  <Amines>
0

>  <Alkyl-Amines>
0

>  <Aromatic Amines>
0

>  <Aromatic Nitrogens>
0

>  <Basic Nitrogens>
0

>  <Acidic Oxygens>
0

>  <Stereo Configuration>
this enantiomer

> <Gold.Version>
5.8.1

> <Gold.Id.Protein>
ID_2|Prot_COX2_5IKQ_Alig|mol2

> <Gold.Goldscore.Fitness>
-50.6140

> <Gold.Goldscore.Internal.Vdw>
-31.8686

> <Gold.Goldscore.Internal.Torsion>
-9.1203

> <Gold.Goldscore.External.Vdw>
-31.7219

> <Gold.Goldscore.Internal.HBond>
0.0000

> <Gold.Goldscore.External.HBond>
0.4135

> <Gold.Goldscore.Internal.Correction>
-33.5790

> <Gold.Goldscore.Hbonds>
donor molecule, donor type, donor heavy atom, donor atom, acceptor molecule, acceptor atom, score
      P1  H  1377  1389       L1    27  0.06
      L1  H     1    33       P1  5703  0.03

> <Gold.Goldscore.Internal.Vdw.Weighted>
-31.8686

> <Gold.Goldscore.Internal.Torsion.Weighted>
-9.1203

> <Gold.Goldscore.External.Vdw.Weighted>
-43.6176

> <Gold.Goldscore.Internal.HBond.Weighted>
0.0000

> <Gold.Goldscore.External.HBond.Weighted>
0.4135

> <Gold.Goldscore.Internal.Correction.Weighted>
-33.5790

> <Gold.Protein.RotatedTorsions>
[ 5077 5068 5067 5065 ] final  108.41 input  179.94 | X-H torsion
[ 5157 5152 5151 5148 ] final -141.12 input -179.92 | X-H torsion
[ 5185 5176 5175 5173 ] final   19.70 input -179.99 | X-H torsion
[ 5712 5703 5702 5700 ] final  -78.58 input  180.00 | X-H torsion
[ 8036 8031 8030 8027 ] final  -28.44 input -179.94 | X-H torsion
[ 2749 2745 2743 2740 ] final  -98.28 input  -60.05 | X-H torsion
[ 1366 1361 1360 1357 ] final  -69.40 input  -60.09 | X-H torsion
[ 2556 2551 2550 2547 ] final -179.20 input   59.97 | X-H torsion

> <Gold.Protein.ActiveResidues>
 PRO86   VAL89   HIS90   LEU93   THR94   ILE112  MET113  TYR115  VAL116  LEU117 
 THR118  SER119  ARG120  SER121  LEU123  ILE124  GLN192  SER194  PHE198  PHE201 
 ALA202  GLN203  PHE205  THR206  PHE209  PHE210  VAL228  ILE341  ILE343  VAL344 
 ILE345  GLU346  ASP347  TYR348  VAL349  GLN350  HIS351  LEU352  SER353  GLY354 
 TYR355  PHE357  LEU359  LYS360  GLU380  PHE381  ASN382  THR383  LEU384  TYR385 
 HIS386  TRP387  LEU390  VAL434  LEU507  ARG513  ALA516  ILE517  PHE518  GLY519 
 GLU520  THR521  MET522  VAL523  GLU524  VAL525  GLY526  ALA527  PRO528  PHE529 
 SER530  LEU531  LYS532  GLY533  LEU534  MET535  COH609 

> <Gold.Protein.RotatedAtoms>
   17.9842    7.7037    3.1969 H   0  0  0  0  0  0  0  0  0  0  0  0  # atno 1366 bound_to 1361
    4.5836   -9.1908    6.6777 H   0  0  0  0  0  0  0  0  0  0  0  0  # atno 2556 bound_to 2551
   -3.1238   -0.4151    1.2160 H   0  0  0  0  0  0  0  0  0  0  0  0  # atno 2749 bound_to 2745
    1.0452   -1.3908    3.8502 H   0  0  0  0  0  0  0  0  0  0  0  0  # atno 5077 bound_to 5068
   11.8737   -1.3787    9.2623 H   0  0  0  0  0  0  0  0  0  0  0  0  # atno 5157 bound_to 5152
   15.7861   -1.1114    4.6571 H   0  0  0  0  0  0  0  0  0  0  0  0  # atno 5185 bound_to 5176
    1.6005    0.0161    2.7573 H   0  0  0  0  0  0  0  0  0  0  0  0  # atno 5712 bound_to 5703
    5.6145    5.2564    3.4837 H   0  0  0  0  0  0  0  0  0  0  0  0  # atno 8036 bound_to 8031
    0.9183   -2.8126    4.3232 LP  0  0  0  0  0  0  0  0  0  0  0  0  # atno 8267 bound_to 5068
    2.3145   -2.1906    3.7483 LP  0  0  0  0  0  0  0  0  0  0  0  0  # atno 8268 bound_to 5068
   13.0788   -2.2776    9.1935 LP  0  0  0  0  0  0  0  0  0  0  0  0  # atno 8279 bound_to 5152
   11.5537   -2.8483    9.3162 LP  0  0  0  0  0  0  0  0  0  0  0  0  # atno 8280 bound_to 5152
   16.6591    0.0436    5.0601 LP  0  0  0  0  0  0  0  0  0  0  0  0  # atno 8281 bound_to 5176
   15.0412    0.1745    4.8813 LP  0  0  0  0  0  0  0  0  0  0  0  0  # atno 8282 bound_to 5176
    3.0356    0.2151    2.3578 LP  0  0  0  0  0  0  0  0  0  0  0  0  # atno 8283 bound_to 5703
    2.4149   -1.2468    2.7377 LP  0  0  0  0  0  0  0  0  0  0  0  0  # atno 8284 bound_to 5703
    6.2021    3.8974    3.7438 LP  0  0  0  0  0  0  0  0  0  0  0  0  # atno 8309 bound_to 8031
    4.6734    4.1159    3.2128 LP  0  0  0  0  0  0  0  0  0  0  0  0  # atno 8310 bound_to 8031
   -3.1385   -0.2609   -0.2805 LP  0  0  0  0  0  0  0  0  0  0  0  0  # atno 8323 bound_to 2745
   -4.3312    0.3052    0.6805 LP  0  0  0  0  0  0  0  0  0  0  0  0  # atno 8324 bound_to 2745
   18.9066    6.5681    2.8453 LP  0  0  0  0  0  0  0  0  0  0  0  0  # atno 8335 bound_to 1361
   17.7777    7.1440    1.8155 LP  0  0  0  0  0  0  0  0  0  0  0  0  # atno 8336 bound_to 1361
    5.2784  -10.3057    7.4113 LP  0  0  0  0  0  0  0  0  0  0  0  0  # atno 8342 bound_to 2551
    4.7687   -8.9415    8.1500 LP  0  0  0  0  0  0  0  0  0  0  0  0  # atno 8343 bound_to 2551

