
030|LMW3_p|sdf|30|dock3
  -GOLD-   6 722 4323D 1   1.00000     0.00000

 81 84  0  0  0  0  0  0  0  0  1 V2000
    4.8740   -1.1411    1.7844 O   0  0  0  0  0  0  0  0  0  0  0  0
    6.1018   -0.8008    2.4268 C   0  0  2  0  0  0  0  0  0  0  0  0
    6.3679    0.7334    2.3926 C   0  0  0  0  0  0  0  0  0  0  0  0
    7.1999   -1.6235    1.7627 C   0  0  0  0  0  0  0  0  0  0  0  0
    7.8301    1.0115    2.9116 C   0  0  1  0  0  0  0  0  0  0  0  0
    5.3527    1.4046    3.3626 C   0  0  0  0  0  0  0  0  0  0  0  0
    6.0670    1.3216    0.9985 C   0  0  0  0  0  0  0  0  0  0  0  0
    8.5670   -1.3433    2.3738 C   0  0  0  0  0  0  0  0  0  0  0  0
    8.9892    0.1452    2.2871 C   0  0  2  0  0  0  0  0  0  0  0  0
    8.2361    2.4940    2.9192 C   0  0  0  0  0  0  0  0  0  0  0  0
   10.2976    0.4166    3.0803 C   0  0  0  0  0  0  0  0  0  0  0  0
    9.3246    0.4916    0.8166 C   0  0  0  0  0  0  0  0  0  0  0  0
    9.4946    2.7150    3.7590 C   0  0  0  0  0  0  0  0  0  0  0  0
   10.5074    1.5945    3.7239 C   0  0  0  0  0  0  0  0  0  0  0  0
   11.3665   -0.6823    3.0584 C   0  0  0  0  0  0  0  0  0  0  0  0
   11.7901    1.8065    4.5210 C   0  0  1  0  0  0  0  0  0  0  0  0
   12.7189   -0.3833    3.7409 C   0  0  0  0  0  0  0  0  0  0  0  0
   13.0088    1.1212    3.7939 C   0  0  2  0  0  0  0  0  0  0  0  0
   12.3337    3.2337    4.6979 C   0  0  0  0  0  0  0  0  0  0  0  0
   11.4736    1.2581    5.9480 C   0  0  0  0  0  0  0  0  0  0  0  0
   14.2016    1.5758    4.6906 C   0  0  2  0  0  0  0  0  0  0  0  0
   13.2285    1.6370    2.3371 C   0  0  0  0  0  0  0  0  0  0  0  0
   13.8253    3.0477    5.0319 C   0  0  0  0  0  0  0  0  0  0  0  0
   15.6571    1.4527    4.1586 C   0  0  1  0  0  0  0  0  0  0  0  0
   16.7193    1.9224    5.1892 C   0  0  0  0  0  0  0  0  0  0  0  0
   15.9944    0.0367    3.6796 C   0  0  0  0  0  0  0  0  0  0  0  0
   18.0769    2.3130    4.5957 C   0  0  0  0  0  0  0  0  0  0  0  0
   17.9320    3.4564    3.6278 C   0  0  0  0  0  0  0  0  0  0  0  0
   18.4188    3.5387    2.3744 C   0  0  0  0  0  0  0  0  0  0  0  0
   19.1811    2.4503    1.6705 C   0  0  0  0  0  0  0  0  0  0  0  0
   18.2087    4.7815    1.5492 C   0  0  0  0  0  0  0  0  0  0  0  0
    4.9576   -0.9949    0.8291 H   0  0  0  0  0  0  0  0  0  0  0  0
    6.0666   -1.0385    3.4695 H   0  0  0  0  0  0  0  0  0  0  0  0
    7.2307   -1.3823    0.7206 H   0  0  0  0  0  0  0  0  0  0  0  0
    6.9754   -2.6589    1.9122 H   0  0  0  0  0  0  0  0  0  0  0  0
    7.7292    0.6767    3.9229 H   0  0  0  0  0  0  0  0  0  0  0  0
    5.3373    2.4602    3.1883 H   0  0  0  0  0  0  0  0  0  0  0  0
    5.6462    1.2143    4.3738 H   0  0  0  0  0  0  0  0  0  0  0  0
    4.3765    1.0008    3.1926 H   0  0  0  0  0  0  0  0  0  0  0  0
    6.5531    2.2695    0.8988 H   0  0  0  0  0  0  0  0  0  0  0  0
    5.0106    1.4488    0.8855 H   0  0  0  0  0  0  0  0  0  0  0  0
    6.4285    0.6543    0.2443 H   0  0  0  0  0  0  0  0  0  0  0  0
    9.2959   -1.9328    1.8580 H   0  0  0  0  0  0  0  0  0  0  0  0
    8.5047   -1.5929    3.4124 H   0  0  0  0  0  0  0  0  0  0  0  0
    7.4357    3.0735    3.3297 H   0  0  0  0  0  0  0  0  0  0  0  0
    8.4410    2.7957    1.9133 H   0  0  0  0  0  0  0  0  0  0  0  0
    9.3963   -0.4102    0.2452 H   0  0  0  0  0  0  0  0  0  0  0  0
   10.2576    1.0140    0.7771 H   0  0  0  0  0  0  0  0  0  0  0  0
    8.5518    1.1105    0.4108 H   0  0  0  0  0  0  0  0  0  0  0  0
    9.1918    2.8534    4.7760 H   0  0  0  0  0  0  0  0  0  0  0  0
    9.9845    3.5661    3.3341 H   0  0  0  0  0  0  0  0  0  0  0  0
   11.5697   -0.9098    2.0328 H   0  0  0  0  0  0  0  0  0  0  0  0
   10.9449   -1.4806    3.6328 H   0  0  0  0  0  0  0  0  0  0  0  0
   13.4989   -0.8673    3.1911 H   0  0  0  0  0  0  0  0  0  0  0  0
   12.6729   -0.7489    4.7454 H   0  0  0  0  0  0  0  0  0  0  0  0
   11.8279    3.7334    5.4975 H   0  0  0  0  0  0  0  0  0  0  0  0
   12.1872    3.8331    3.8237 H   0  0  0  0  0  0  0  0  0  0  0  0
   10.8564    1.9588    6.4706 H   0  0  0  0  0  0  0  0  0  0  0  0
   12.3873    1.1165    6.4864 H   0  0  0  0  0  0  0  0  0  0  0  0
   10.9600    0.3231    5.8649 H   0  0  0  0  0  0  0  0  0  0  0  0
   14.2842    0.8977    5.5141 H   0  0  0  0  0  0  0  0  0  0  0  0
   14.1023    1.1779    1.9242 H   0  0  0  0  0  0  0  0  0  0  0  0
   13.3563    2.6993    2.3504 H   0  0  0  0  0  0  0  0  0  0  0  0
   12.3777    1.3876    1.7382 H   0  0  0  0  0  0  0  0  0  0  0  0
   13.9930    3.2359    6.0718 H   0  0  0  0  0  0  0  0  0  0  0  0
   14.4257    3.7305    4.4678 H   0  0  0  0  0  0  0  0  0  0  0  0
   15.6962    2.1114    3.3164 H   0  0  0  0  0  0  0  0  0  0  0  0
   16.8794    1.1260    5.8857 H   0  0  0  0  0  0  0  0  0  0  0  0
   16.3250    2.8102    5.6380 H   0  0  0  0  0  0  0  0  0  0  0  0
   15.5951   -0.6776    4.3690 H   0  0  0  0  0  0  0  0  0  0  0  0
   17.0569   -0.0772    3.6235 H   0  0  0  0  0  0  0  0  0  0  0  0
   15.5668   -0.1238    2.7120 H   0  0  0  0  0  0  0  0  0  0  0  0
   18.4903    1.4700    4.0825 H   0  0  0  0  0  0  0  0  0  0  0  0
   18.7223    2.6196    5.3922 H   0  0  0  0  0  0  0  0  0  0  0  0
   17.3972    4.2727    3.9636 H   0  0  0  0  0  0  0  0  0  0  0  0
   20.1643    2.3773    2.0861 H   0  0  0  0  0  0  0  0  0  0  0  0
   19.2508    2.6806    0.6279 H   0  0  0  0  0  0  0  0  0  0  0  0
   18.6705    1.5185    1.7965 H   0  0  0  0  0  0  0  0  0  0  0  0
   19.1578    5.1880    1.2685 H   0  0  0  0  0  0  0  0  0  0  0  0
   17.6672    5.5037    2.1237 H   0  0  0  0  0  0  0  0  0  0  0  0
   17.6517    4.5354    0.6694 H   0  0  0  0  0  0  0  0  0  0  0  0
  1  2  1  0  0  0  0
  1 32  1  0  0  0  0
  2  3  1  0  0  0  0
  2  4  1  0  0  0  0
  2 33  1  0  0  0  0
  3  5  1  0  0  0  0
  3  6  1  0  0  0  0
  3  7  1  0  0  0  0
  4  8  1  0  0  0  0
  4 34  1  0  0  0  0
  4 35  1  0  0  0  0
  5  9  1  0  0  0  0
  5 10  1  0  0  0  0
  5 36  1  0  0  0  0
  6 37  1  0  0  0  0
  6 38  1  0  0  0  0
  6 39  1  0  0  0  0
  7 40  1  0  0  0  0
  7 41  1  0  0  0  0
  7 42  1  0  0  0  0
  8  9  1  0  0  0  0
  8 43  1  0  0  0  0
  8 44  1  0  0  0  0
  9 11  1  0  0  0  0
  9 12  1  0  0  0  0
 10 13  1  0  0  0  0
 10 45  1  0  0  0  0
 10 46  1  0  0  0  0
 11 14  2  0  0  0  0
 11 15  1  0  0  0  0
 12 47  1  0  0  0  0
 12 48  1  0  0  0  0
 12 49  1  0  0  0  0
 13 14  1  0  0  0  0
 13 50  1  0  0  0  0
 13 51  1  0  0  0  0
 14 16  1  0  0  0  0
 15 17  1  0  0  0  0
 15 52  1  0  0  0  0
 15 53  1  0  0  0  0
 16 18  1  0  0  0  0
 16 19  1  0  0  0  0
 16 20  1  0  0  0  0
 17 18  1  0  0  0  0
 17 54  1  0  0  0  0
 17 55  1  0  0  0  0
 18 21  1  0  0  0  0
 18 22  1  0  0  0  0
 19 23  1  0  0  0  0
 19 56  1  0  0  0  0
 19 57  1  0  0  0  0
 20 58  1  0  0  0  0
 20 59  1  0  0  0  0
 20 60  1  0  0  0  0
 21 24  1  0  0  0  0
 21 23  1  0  0  0  0
 21 61  1  0  0  0  0
 22 62  1  0  0  0  0
 22 63  1  0  0  0  0
 22 64  1  0  0  0  0
 23 65  1  0  0  0  0
 23 66  1  0  0  0  0
 24 25  1  0  0  0  0
 24 26  1  0  0  0  0
 24 67  1  0  0  0  0
 25 27  1  0  0  0  0
 25 68  1  0  0  0  0
 25 69  1  0  0  0  0
 26 70  1  0  0  0  0
 26 71  1  0  0  0  0
 26 72  1  0  0  0  0
 27 28  1  0  0  0  0
 27 73  1  0  0  0  0
 27 74  1  0  0  0  0
 28 29  2  0  0  0  0
 28 75  1  0  0  0  0
 29 30  1  0  0  0  0
 29 31  1  0  0  0  0
 30 76  1  0  0  0  0
 30 77  1  0  0  0  0
 30 78  1  0  0  0  0
 31 79  1  0  0  0  0
 31 80  1  0  0  0  0
 31 81  1  0  0  0  0
M  END
>  <Code-name>
030

>  <Compound>
Lanosterol

>  <Specie>
Inonotus obliquus

>  <Reference>
GUEDES, 2016

>  <Organism>
Antitumoral Activity

>  <Smiles>
C[C@H](CCC=C(C)C)[C@@H](CC1)[C@@](C)(CC2)[C@]1(C)C(CC1)=C2[C@@](C)(CC2)[C@@H]1C(C)(C)[C@H]2O

>  <MMFF94 Energy>
123.53

>  <Total Molweight>
426.726

>  <Molweight>
426.726

>  <Monoisotopic Mass>
426.386165

>  <cLogP>
8.4216

>  <cLogS>
-6.453

>  <H-Acceptors>
1

>  <H-Donors>
1

>  <Total Surface Area>
340.8

>  <Relative PSA>
0.038439

>  <Polar Surface Area>
20.23

>  <Druglikeness>
-4.1331

>  <Mutagenic>
none

>  <Tumorigenic>
none

>  <Reproductive Effective>
high

>  <Irritant>
high

>  <Nasty Functions>


>  <Shape Index>
0.51613

>  <Molecular Flexibility>
0.28689

>  <Molecular Complexity>
0.98582

>  <Fragments>
1

>  <Non-H Atoms>
31

>  <Non-C/H Atoms>
1

>  <Metal-Atoms>
0

>  <Electronegative Atoms>
1

>  <Stereo Centers>
7

>  <Rotatable Bonds>
4

>  <Rings Closures>
4

>  <Small Rings>
4

>  <Aromatic Rings>
0

>  <Aromatic Atoms>
0

>  <sp3-Atoms>
27

>  <Symmetric atoms>
2

>  <Amides>
0

>  <Amines>
0

>  <Alkyl-Amines>
0

>  <Aromatic Amines>
0

>  <Aromatic Nitrogens>
0

>  <Basic Nitrogens>
0

>  <Acidic Oxygens>
0

>  <Stereo Configuration>
this enantiomer

> <Gold.Version>
5.8.1

> <Gold.Id.Protein>
ID_2|Prot_COX2_5IKQ_Alig|mol2

> <Gold.Goldscore.Fitness>
-49.7545

> <Gold.Goldscore.Internal.Vdw>
-27.0071

> <Gold.Goldscore.Internal.Torsion>
-7.3347

> <Gold.Goldscore.External.Vdw>
-33.4302

> <Gold.Goldscore.Internal.HBond>
0.0000

> <Gold.Goldscore.External.HBond>
0.0000

> <Gold.Goldscore.Internal.Correction>
-30.5539

> <Gold.Goldscore.Internal.Vdw.Weighted>
-27.0071

> <Gold.Goldscore.Internal.Torsion.Weighted>
-7.3347

> <Gold.Goldscore.External.Vdw.Weighted>
-45.9665

> <Gold.Goldscore.Internal.HBond.Weighted>
0.0000

> <Gold.Goldscore.External.HBond.Weighted>
0.0000

> <Gold.Goldscore.Internal.Correction.Weighted>
-30.5539

> <Gold.Protein.RotatedTorsions>
[ 5077 5068 5067 5065 ] final  168.46 input  179.94 | X-H torsion
[ 5157 5152 5151 5148 ] final -152.08 input -179.92 | X-H torsion
[ 5185 5176 5175 5173 ] final   30.80 input -179.99 | X-H torsion
[ 5712 5703 5702 5700 ] final -117.59 input  180.00 | X-H torsion
[ 8036 8031 8030 8027 ] final  -50.88 input -179.94 | X-H torsion
[ 2749 2745 2743 2740 ] final  -96.94 input  -60.05 | X-H torsion
[ 1366 1361 1360 1357 ] final  -58.90 input  -60.09 | X-H torsion
[ 2556 2551 2550 2547 ] final    3.79 input   59.97 | X-H torsion

> <Gold.Protein.ActiveResidues>
 PRO86   VAL89   HIS90   LEU93   THR94   ILE112  MET113  TYR115  VAL116  LEU117 
 THR118  SER119  ARG120  SER121  LEU123  ILE124  GLN192  SER194  PHE198  PHE201 
 ALA202  GLN203  PHE205  THR206  PHE209  PHE210  VAL228  ILE341  ILE343  VAL344 
 ILE345  GLU346  ASP347  TYR348  VAL349  GLN350  HIS351  LEU352  SER353  GLY354 
 TYR355  PHE357  LEU359  LYS360  GLU380  PHE381  ASN382  THR383  LEU384  TYR385 
 HIS386  TRP387  LEU390  VAL434  LEU507  ARG513  ALA516  ILE517  PHE518  GLY519 
 GLU520  THR521  MET522  VAL523  GLU524  VAL525  GLY526  ALA527  PRO528  PHE529 
 SER530  LEU531  LYS532  GLY533  LEU534  MET535  COH609 

> <Gold.Protein.RotatedAtoms>
   17.8887    7.7459    3.0968 H   0  0  0  0  0  0  0  0  0  0  0  0  # atno 1366 bound_to 1361
    5.0967   -9.7899    8.0469 H   0  0  0  0  0  0  0  0  0  0  0  0  # atno 2556 bound_to 2551
   -3.1374   -0.4086    1.2267 H   0  0  0  0  0  0  0  0  0  0  0  0  # atno 2749 bound_to 2745
    1.8122   -1.4736    3.6808 H   0  0  0  0  0  0  0  0  0  0  0  0  # atno 5077 bound_to 5068
   12.0190   -1.3397    9.2505 H   0  0  0  0  0  0  0  0  0  0  0  0  # atno 5157 bound_to 5152
   15.6365   -1.0851    4.6447 H   0  0  0  0  0  0  0  0  0  0  0  0  # atno 5185 bound_to 5176
    1.9441    0.3853    2.6068 H   0  0  0  0  0  0  0  0  0  0  0  0  # atno 5712 bound_to 5703
    5.8885    5.1570    3.5794 H   0  0  0  0  0  0  0  0  0  0  0  0  # atno 8036 bound_to 8031
    0.4822   -1.9928    4.1530 LP  0  0  0  0  0  0  0  0  0  0  0  0  # atno 8267 bound_to 5068
    1.8321   -2.9112    4.1214 LP  0  0  0  0  0  0  0  0  0  0  0  0  # atno 8268 bound_to 5068
   13.0319   -2.4515    9.1954 LP  0  0  0  0  0  0  0  0  0  0  0  0  # atno 8279 bound_to 5152
   11.4268   -2.7211    9.3285 LP  0  0  0  0  0  0  0  0  0  0  0  0  # atno 8280 bound_to 5152
   16.7265   -0.1215    5.0217 LP  0  0  0  0  0  0  0  0  0  0  0  0  # atno 8281 bound_to 5176
   15.1534    0.3081    4.9347 LP  0  0  0  0  0  0  0  0  0  0  0  0  # atno 8282 bound_to 5176
    3.2136   -0.3886    2.3878 LP  0  0  0  0  0  0  0  0  0  0  0  0  # atno 8283 bound_to 5703
    1.8246   -1.0862    2.8883 LP  0  0  0  0  0  0  0  0  0  0  0  0  # atno 8284 bound_to 5703
    5.9398    3.6565    3.6547 LP  0  0  0  0  0  0  0  0  0  0  0  0  # atno 8309 bound_to 8031
    4.6070    4.4760    3.1871 LP  0  0  0  0  0  0  0  0  0  0  0  0  # atno 8310 bound_to 8031
   -3.1216   -0.2719   -0.2715 LP  0  0  0  0  0  0  0  0  0  0  0  0  # atno 8323 bound_to 2745
   -4.3318    0.3084    0.6587 LP  0  0  0  0  0  0  0  0  0  0  0  0  # atno 8324 bound_to 2745
   18.9087    6.6439    3.0004 LP  0  0  0  0  0  0  0  0  0  0  0  0  # atno 8335 bound_to 1361
   17.8899    7.0177    1.7801 LP  0  0  0  0  0  0  0  0  0  0  0  0  # atno 8336 bound_to 1361
    4.4756   -8.5993    7.3680 LP  0  0  0  0  0  0  0  0  0  0  0  0  # atno 8342 bound_to 2551
    4.9576   -9.9312    6.5553 LP  0  0  0  0  0  0  0  0  0  0  0  0  # atno 8343 bound_to 2551

