
033|LMW3_p|sdf|33|dock3
  -GOLD-   6 722 4473D 1   1.00000     0.00000

 81 84  0  0  0  0  0  0  0  0  1 V2000
    5.3843   -0.0456   -1.1418 O   0  0  0  0  0  0  0  0  0  0  0  0
    6.5552    0.2439   -0.3797 C   0  0  2  0  0  0  0  0  0  0  0  0
    7.1331   -1.0328    0.2945 C   0  0  0  0  0  0  0  0  0  0  0  0
    6.2396    1.3611    0.6074 C   0  0  0  0  0  0  0  0  0  0  0  0
    8.3464   -0.6120    1.2069 C   0  0  1  0  0  0  0  0  0  0  0  0
    7.6415   -1.9623   -0.8433 C   0  0  0  0  0  0  0  0  0  0  0  0
    6.0361   -1.8332    1.0279 C   0  0  0  0  0  0  0  0  0  0  0  0
    7.4644    1.7568    1.4242 C   0  0  0  0  0  0  0  0  0  0  0  0
    8.1130    0.5803    2.2064 C   0  0  2  0  0  0  0  0  0  0  0  0
    9.0344   -1.7911    1.9235 C   0  0  0  0  0  0  0  0  0  0  0  0
    9.4771    0.9911    2.8407 C   0  0  0  0  0  0  0  0  0  0  0  0
    7.2028    0.2217    3.4076 C   0  0  0  0  0  0  0  0  0  0  0  0
   10.2669   -1.3370    2.6412 C   0  0  0  0  0  0  0  0  0  0  0  0
   10.5040   -0.0643    3.0042 C   0  0  0  0  0  0  0  0  0  0  0  0
    9.7211    2.2416    3.3008 C   0  0  0  0  0  0  0  0  0  0  0  0
   11.8629    0.3920    3.5467 C   0  0  1  0  0  0  0  0  0  0  0  0
   10.9366    2.6613    4.0988 C   0  0  0  0  0  0  0  0  0  0  0  0
   11.6520    1.4403    4.7067 C   0  0  2  0  0  0  0  0  0  0  0  0
   12.7698   -0.6374    4.2705 C   0  0  1  0  0  0  0  0  0  0  0  0
   12.6299    0.9454    2.3007 C   0  0  0  0  0  0  0  0  0  0  0  0
   13.1139    1.6584    5.2075 C   0  0  2  0  0  0  0  0  0  0  0  0
   10.7803    0.8875    5.8819 C   0  0  0  0  0  0  0  0  0  0  0  0
   13.5113   -1.5034    3.4207 O   0  0  0  0  0  0  0  0  0  0  0  0
   13.7150    0.2200    5.1364 C   0  0  0  0  0  0  0  0  0  0  0  0
   13.3783    2.3348    6.5924 C   0  0  2  0  0  0  0  0  0  0  0  0
   12.7621    3.7389    6.7055 C   0  0  0  0  0  0  0  0  0  0  0  0
   14.9126    2.3837    6.8571 C   0  0  0  0  0  0  0  0  0  0  0  0
   13.2516    4.4081    7.8572 O   0  0  0  0  0  0  0  0  0  0  0  0
   15.7364    2.9369    5.6890 C   0  0  0  0  0  0  0  0  0  0  0  0
   17.1993    3.0009    6.0360 C   0  0  0  0  0  0  0  0  0  0  0  0
   18.1958    3.5197    5.2922 C   0  0  0  0  0  0  0  0  0  0  0  0
   18.0303    4.1028    3.9157 C   0  0  0  0  0  0  0  0  0  0  0  0
   19.6115    3.5336    5.8060 C   0  0  0  0  0  0  0  0  0  0  0  0
    4.6705   -0.3215   -0.5457 H   0  0  0  0  0  0  0  0  0  0  0  0
    7.3332    0.5884   -1.0283 H   0  0  0  0  0  0  0  0  0  0  0  0
    5.4716    1.0279    1.2738 H   0  0  0  0  0  0  0  0  0  0  0  0
    5.9203    2.2171    0.0503 H   0  0  0  0  0  0  0  0  0  0  0  0
    9.0161   -0.2236    0.4683 H   0  0  0  0  0  0  0  0  0  0  0  0
    7.8088   -2.9446   -0.4534 H   0  0  0  0  0  0  0  0  0  0  0  0
    8.5572   -1.5746   -1.2381 H   0  0  0  0  0  0  0  0  0  0  0  0
    6.9084   -2.0075   -1.6213 H   0  0  0  0  0  0  0  0  0  0  0  0
    5.4952   -2.4272    0.3213 H   0  0  0  0  0  0  0  0  0  0  0  0
    5.3644   -1.1559    1.5128 H   0  0  0  0  0  0  0  0  0  0  0  0
    6.4881   -2.4712    1.7583 H   0  0  0  0  0  0  0  0  0  0  0  0
    7.1707    2.5070    2.1284 H   0  0  0  0  0  0  0  0  0  0  0  0
    8.1987    2.1073    0.7293 H   0  0  0  0  0  0  0  0  0  0  0  0
    9.3039   -2.5314    1.1995 H   0  0  0  0  0  0  0  0  0  0  0  0
    8.3529   -2.1987    2.6408 H   0  0  0  0  0  0  0  0  0  0  0  0
    7.6394   -0.5857    3.9574 H   0  0  0  0  0  0  0  0  0  0  0  0
    6.2381   -0.0715    3.0492 H   0  0  0  0  0  0  0  0  0  0  0  0
    7.1021    1.0745    4.0459 H   0  0  0  0  0  0  0  0  0  0  0  0
   10.9803   -2.0461    2.8722 H   0  0  0  0  0  0  0  0  0  0  0  0
    9.0198    2.9687    3.0896 H   0  0  0  0  0  0  0  0  0  0  0  0
   10.6274    3.3137    4.8886 H   0  0  0  0  0  0  0  0  0  0  0  0
   11.6175    3.1608    3.4418 H   0  0  0  0  0  0  0  0  0  0  0  0
   12.1592   -1.3157    4.8291 H   0  0  0  0  0  0  0  0  0  0  0  0
   11.9726    0.9640    1.4566 H   0  0  0  0  0  0  0  0  0  0  0  0
   13.4666    0.3135    2.0873 H   0  0  0  0  0  0  0  0  0  0  0  0
   12.9751    1.9372    2.5059 H   0  0  0  0  0  0  0  0  0  0  0  0
   13.5682    2.4054    4.5908 H   0  0  0  0  0  0  0  0  0  0  0  0
   10.7142    1.6248    6.6544 H   0  0  0  0  0  0  0  0  0  0  0  0
   11.2315   -0.0002    6.2736 H   0  0  0  0  0  0  0  0  0  0  0  0
    9.7989    0.6595    5.5215 H   0  0  0  0  0  0  0  0  0  0  0  0
   13.8709   -2.2381    3.9420 H   0  0  0  0  0  0  0  0  0  0  0  0
   14.6879    0.2526    4.6922 H   0  0  0  0  0  0  0  0  0  0  0  0
   13.8087   -0.1973    6.1173 H   0  0  0  0  0  0  0  0  0  0  0  0
   12.8957    1.7394    7.3391 H   0  0  0  0  0  0  0  0  0  0  0  0
   11.6980    3.6512    6.7755 H   0  0  0  0  0  0  0  0  0  0  0  0
   13.0307    4.3043    5.8378 H   0  0  0  0  0  0  0  0  0  0  0  0
   15.2490    1.3891    7.0632 H   0  0  0  0  0  0  0  0  0  0  0  0
   15.0606    3.0513    7.6801 H   0  0  0  0  0  0  0  0  0  0  0  0
   12.6048    5.0709    8.1455 H   0  0  0  0  0  0  0  0  0  0  0  0
   15.3902    3.9216    5.4534 H   0  0  0  0  0  0  0  0  0  0  0  0
   15.6157    2.2836    4.8503 H   0  0  0  0  0  0  0  0  0  0  0  0
   17.4703    2.6017    6.9482 H   0  0  0  0  0  0  0  0  0  0  0  0
   18.3948    5.1087    3.9083 H   0  0  0  0  0  0  0  0  0  0  0  0
   16.9943    4.0969    3.6481 H   0  0  0  0  0  0  0  0  0  0  0  0
   18.5840    3.5176    3.2115 H   0  0  0  0  0  0  0  0  0  0  0  0
   20.2714    3.1771    5.0429 H   0  0  0  0  0  0  0  0  0  0  0  0
   19.6852    2.9006    6.6655 H   0  0  0  0  0  0  0  0  0  0  0  0
   19.8836    4.5329    6.0746 H   0  0  0  0  0  0  0  0  0  0  0  0
  1  2  1  0  0  0  0
  1 34  1  0  0  0  0
  2  3  1  0  0  0  0
  2  4  1  0  0  0  0
  2 35  1  0  0  0  0
  3  5  1  0  0  0  0
  3  6  1  0  0  0  0
  3  7  1  0  0  0  0
  4  8  1  0  0  0  0
  4 36  1  0  0  0  0
  4 37  1  0  0  0  0
  5  9  1  0  0  0  0
  5 10  1  0  0  0  0
  5 38  1  0  0  0  0
  6 39  1  0  0  0  0
  6 40  1  0  0  0  0
  6 41  1  0  0  0  0
  7 42  1  0  0  0  0
  7 43  1  0  0  0  0
  7 44  1  0  0  0  0
  8  9  1  0  0  0  0
  8 45  1  0  0  0  0
  8 46  1  0  0  0  0
  9 11  1  0  0  0  0
  9 12  1  0  0  0  0
 10 13  1  0  0  0  0
 10 47  1  0  0  0  0
 10 48  1  0  0  0  0
 11 14  1  0  0  0  0
 11 15  2  0  0  0  0
 12 49  1  0  0  0  0
 12 50  1  0  0  0  0
 12 51  1  0  0  0  0
 13 14  2  0  0  0  0
 13 52  1  0  0  0  0
 14 16  1  0  0  0  0
 15 17  1  0  0  0  0
 15 53  1  0  0  0  0
 16 18  1  0  0  0  0
 16 19  1  0  0  0  0
 16 20  1  0  0  0  0
 17 18  1  0  0  0  0
 17 54  1  0  0  0  0
 17 55  1  0  0  0  0
 18 21  1  0  0  0  0
 18 22  1  0  0  0  0
 19 23  1  0  0  0  0
 19 24  1  0  0  0  0
 19 56  1  0  0  0  0
 20 57  1  0  0  0  0
 20 58  1  0  0  0  0
 20 59  1  0  0  0  0
 21 25  1  0  0  0  0
 21 24  1  0  0  0  0
 21 60  1  0  0  0  0
 22 61  1  0  0  0  0
 22 62  1  0  0  0  0
 22 63  1  0  0  0  0
 23 64  1  0  0  0  0
 24 65  1  0  0  0  0
 24 66  1  0  0  0  0
 25 26  1  0  0  0  0
 25 27  1  0  0  0  0
 25 67  1  0  0  0  0
 26 28  1  0  0  0  0
 26 68  1  0  0  0  0
 26 69  1  0  0  0  0
 27 29  1  0  0  0  0
 27 70  1  0  0  0  0
 27 71  1  0  0  0  0
 28 72  1  0  0  0  0
 29 30  1  0  0  0  0
 29 73  1  0  0  0  0
 29 74  1  0  0  0  0
 30 31  2  0  0  0  0
 30 75  1  0  0  0  0
 31 32  1  0  0  0  0
 31 33  1  0  0  0  0
 32 76  1  0  0  0  0
 32 77  1  0  0  0  0
 32 78  1  0  0  0  0
 33 79  1  0  0  0  0
 33 80  1  0  0  0  0
 33 81  1  0  0  0  0
M  END
>  <Code-name>
033

>  <Compound>
Pinicolol B

>  <Specie>
Antrodia cinnamomea

>  <Reference>
WU et al., 2017

>  <Organism>
Cytotoxic Activity

>  <Smiles>
C[C@@]1([C@H](C[C@@H]2O)[C@@H](CCC=C(C)C)CO)[C@]2(C)C2=CC[C@@H](C(C)(C)[C@H](CC3)O)[C@@]3(C)C2=CC1

>  <MMFF94 Energy>
130.37

>  <Total Molweight>
456.708

>  <Molweight>
456.708

>  <Monoisotopic Mass>
456.360345

>  <cLogP>
6.3674

>  <cLogS>
-5.319

>  <H-Acceptors>
3

>  <H-Donors>
3

>  <Total Surface Area>
352.72

>  <Relative PSA>
0.11142

>  <Polar Surface Area>
60.69

>  <Druglikeness>
-5.2094

>  <Mutagenic>
none

>  <Tumorigenic>
none

>  <Reproductive Effective>
none

>  <Irritant>
none

>  <Nasty Functions>


>  <Shape Index>
0.48485

>  <Molecular Flexibility>
0.30087

>  <Molecular Complexity>
1.0162

>  <Fragments>
1

>  <Non-H Atoms>
33

>  <Non-C/H Atoms>
3

>  <Metal-Atoms>
0

>  <Electronegative Atoms>
3

>  <Stereo Centers>
8

>  <Rotatable Bonds>
5

>  <Rings Closures>
4

>  <Small Rings>
4

>  <Aromatic Rings>
0

>  <Aromatic Atoms>
0

>  <sp3-Atoms>
27

>  <Symmetric atoms>
2

>  <Amides>
0

>  <Amines>
0

>  <Alkyl-Amines>
0

>  <Aromatic Amines>
0

>  <Aromatic Nitrogens>
0

>  <Basic Nitrogens>
0

>  <Acidic Oxygens>
0

>  <Stereo Configuration>
this enantiomer

> <Gold.Version>
5.8.1

> <Gold.Id.Protein>
ID_2|Prot_COX2_5IKQ_Alig|mol2

> <Gold.Goldscore.Fitness>
0.0000

> <Gold.Goldscore.Internal.Vdw>
-34.4677

> <Gold.Goldscore.Internal.Torsion>
-8.4631

> <Gold.Goldscore.External.Vdw>
-603.0251

> <Gold.Goldscore.Internal.HBond>
0.0000

> <Gold.Goldscore.External.HBond>
0.0000

> <Gold.Goldscore.Internal.Correction>
-33.1396

> <Gold.Goldscore.Internal.Vdw.Weighted>
-34.4677

> <Gold.Goldscore.Internal.Torsion.Weighted>
-8.4631

> <Gold.Goldscore.External.Vdw.Weighted>
-829.1595

> <Gold.Goldscore.Internal.HBond.Weighted>
0.0000

> <Gold.Goldscore.External.HBond.Weighted>
0.0000

> <Gold.Goldscore.Internal.Correction.Weighted>
-33.1396

> <Gold.Protein.RotatedTorsions>
[ 5077 5068 5067 5065 ] final  161.66 input  179.94 | X-H torsion
[ 5157 5152 5151 5148 ] final -143.36 input -179.92 | X-H torsion
[ 5185 5176 5175 5173 ] final  -47.81 input -179.99 | X-H torsion
[ 5712 5703 5702 5700 ] final  126.56 input  180.00 | X-H torsion
[ 8036 8031 8030 8027 ] final -141.97 input -179.94 | X-H torsion
[ 2749 2745 2743 2740 ] final  103.08 input  -60.05 | X-H torsion
[ 1366 1361 1360 1357 ] final -147.28 input  -60.09 | X-H torsion
[ 2556 2551 2550 2547 ] final -100.35 input   59.97 | X-H torsion

> <Gold.Protein.ActiveResidues>
 PRO86   VAL89   HIS90   LEU93   THR94   ILE112  MET113  TYR115  VAL116  LEU117 
 THR118  SER119  ARG120  SER121  LEU123  ILE124  GLN192  SER194  PHE198  PHE201 
 ALA202  GLN203  PHE205  THR206  PHE209  PHE210  VAL228  ILE341  ILE343  VAL344 
 ILE345  GLU346  ASP347  TYR348  VAL349  GLN350  HIS351  LEU352  SER353  GLY354 
 TYR355  PHE357  LEU359  LYS360  GLU380  PHE381  ASN382  THR383  LEU384  TYR385 
 HIS386  TRP387  LEU390  VAL434  LEU507  ARG513  ALA516  ILE517  PHE518  GLY519 
 GLU520  THR521  MET522  VAL523  GLU524  VAL525  GLY526  ALA527  PRO528  PHE529 
 SER530  LEU531  LYS532  GLY533  LEU534  MET535  COH609 

> <Gold.Protein.RotatedAtoms>
   18.7099    7.0272    3.2483 H   0  0  0  0  0  0  0  0  0  0  0  0  # atno 1366 bound_to 1361
    4.5435   -8.7708    7.5887 H   0  0  0  0  0  0  0  0  0  0  0  0  # atno 2556 bound_to 2551
   -3.6257    0.0582   -0.1747 H   0  0  0  0  0  0  0  0  0  0  0  0  # atno 2749 bound_to 2745
    1.7321   -1.4252    3.6848 H   0  0  0  0  0  0  0  0  0  0  0  0  # atno 5077 bound_to 5068
   11.9027   -1.3685    9.2600 H   0  0  0  0  0  0  0  0  0  0  0  0  # atno 5157 bound_to 5152
   16.5299   -0.7035    4.8739 H   0  0  0  0  0  0  0  0  0  0  0  0  # atno 5185 bound_to 5176
    3.0523   -0.3245    2.3794 H   0  0  0  0  0  0  0  0  0  0  0  0  # atno 5712 bound_to 5703
    6.1492    4.0663    3.6778 H   0  0  0  0  0  0  0  0  0  0  0  0  # atno 8036 bound_to 8031
    0.4856   -2.0988    4.1887 LP  0  0  0  0  0  0  0  0  0  0  0  0  # atno 8267 bound_to 5068
    1.9247   -2.8631    4.0809 LP  0  0  0  0  0  0  0  0  0  0  0  0  # atno 8268 bound_to 5068
   13.0719   -2.3138    9.1937 LP  0  0  0  0  0  0  0  0  0  0  0  0  # atno 8279 bound_to 5152
   11.5258   -2.8243    9.3188 LP  0  0  0  0  0  0  0  0  0  0  0  0  # atno 8280 bound_to 5152
   15.7481    0.5621    5.0873 LP  0  0  0  0  0  0  0  0  0  0  0  0  # atno 8281 bound_to 5176
   15.0591   -0.8337    4.5939 LP  0  0  0  0  0  0  0  0  0  0  0  0  # atno 8282 bound_to 5176
    1.8791   -1.1211    2.8771 LP  0  0  0  0  0  0  0  0  0  0  0  0  # atno 8283 bound_to 5703
    1.8290    0.4982    2.6719 LP  0  0  0  0  0  0  0  0  0  0  0  0  # atno 8284 bound_to 5703
    4.7155    4.0223    3.2280 LP  0  0  0  0  0  0  0  0  0  0  0  0  # atno 8309 bound_to 8031
    5.5186    5.4187    3.4957 LP  0  0  0  0  0  0  0  0  0  0  0  0  # atno 8310 bound_to 8031
   -4.1285    0.1140    1.2422 LP  0  0  0  0  0  0  0  0  0  0  0  0  # atno 8323 bound_to 2745
   -2.7401   -0.6366    0.8234 LP  0  0  0  0  0  0  0  0  0  0  0  0  # atno 8324 bound_to 2745
   18.2715    6.6838    1.8505 LP  0  0  0  0  0  0  0  0  0  0  0  0  # atno 8335 bound_to 1361
   17.5447    7.8376    2.7488 LP  0  0  0  0  0  0  0  0  0  0  0  0  # atno 8336 bound_to 1361
    4.8431   -9.7203    6.4605 LP  0  0  0  0  0  0  0  0  0  0  0  0  # atno 8342 bound_to 2551
    5.2520  -10.0293    8.0110 LP  0  0  0  0  0  0  0  0  0  0  0  0  # atno 8343 bound_to 2551

