
034|LMW3_p|sdf|34|dock11
  -GOLD-   6 722 4533D 1   1.00000     0.00000

 80 83  0  0  0  0  0  0  0  0  1 V2000
    8.9773   -3.0654    3.4148 O   0  0  0  0  0  0  0  0  0  0  0  0
    9.1731   -1.8712    3.1970 C   0  0  0  0  0  0  0  0  0  0  0  0
   10.4931   -1.3048    3.5403 C   0  0  0  0  0  0  0  0  0  0  0  0
    8.0893   -0.9432    2.6511 C   0  0  1  0  0  0  0  0  0  0  0  0
   10.8101   -0.0161    3.3233 C   0  0  0  0  0  0  0  0  0  0  0  0
    8.6897    0.2375    1.8459 C   0  0  1  0  0  0  0  0  0  0  0  0
    7.0808   -1.7575    1.8199 C   0  0  0  0  0  0  0  0  0  0  0  0
   12.0943    0.6093    3.8625 C   0  0  2  0  0  0  0  0  0  0  0  0
    9.8461    0.9453    2.6520 C   0  0  1  0  0  0  0  0  0  0  0  0
    9.2869   -0.3000    0.4970 C   0  0  0  0  0  0  0  0  0  0  0  0
    7.5822    1.2751    1.5317 C   0  0  0  0  0  0  0  0  0  0  0  0
    7.6972   -2.3036    0.5303 C   0  0  2  0  0  0  0  0  0  0  0  0
   12.8181   -0.4167    4.5479 O   0  0  0  0  0  0  0  0  0  0  0  0
   11.8021    1.8125    4.8219 C   0  0  1  0  0  0  0  0  0  0  0  0
   13.0382    1.1568    2.7817 C   0  0  0  0  0  0  0  0  0  0  0  0
    9.4150    1.9364    3.7473 C   0  0  0  0  0  0  0  0  0  0  0  0
    8.3644   -1.2123   -0.3194 C   0  0  1  0  0  0  0  0  0  0  0  0
    6.6668   -2.9242   -0.2449 O   0  0  0  0  0  0  0  0  0  0  0  0
   13.1289    2.6774    4.7609 C   0  0  2  0  0  0  0  0  0  0  0  0
   10.6314    2.7073    4.2794 C   0  0  0  0  0  0  0  0  0  0  0  0
   11.3714    1.3277    6.2165 C   0  0  0  0  0  0  0  0  0  0  0  0
   13.5051    2.5313    3.2620 C   0  0  0  0  0  0  0  0  0  0  0  0
    7.3424   -0.4458   -0.9706 O   0  0  0  0  0  0  0  0  0  0  0  0
   14.3266    2.3926    5.7403 C   0  0  1  0  0  0  0  0  0  0  0  0
   14.6269    0.9874    5.7211 O   0  0  0  0  0  0  0  0  0  0  0  0
   15.6687    3.1189    5.3381 C   0  0  2  0  0  0  0  0  0  0  0  0
   13.9743    2.7652    7.1979 C   0  0  0  0  0  0  0  0  0  0  0  0
   15.3432    4.1134    4.3477 O   0  0  0  0  0  0  0  0  0  0  0  0
   16.7629    2.1770    4.8077 C   0  0  0  0  0  0  0  0  0  0  0  0
   18.1276    2.8419    4.4870 C   0  0  1  0  0  0  0  0  0  0  0  0
   18.1893    3.5152    3.0861 C   0  0  0  0  0  0  0  0  0  0  0  0
   18.4821    3.8039    5.6322 C   0  0  0  0  0  0  0  0  0  0  0  0
   18.5533    2.5113    1.9852 C   0  0  0  0  0  0  0  0  0  0  0  0
   19.1363    4.7161    3.0152 C   0  0  0  0  0  0  0  0  0  0  0  0
   11.2017   -1.9238    3.9643 H   0  0  0  0  0  0  0  0  0  0  0  0
    7.5699   -0.5027    3.4764 H   0  0  0  0  0  0  0  0  0  0  0  0
    6.2550   -1.1262    1.5660 H   0  0  0  0  0  0  0  0  0  0  0  0
    6.7674   -2.5921    2.4117 H   0  0  0  0  0  0  0  0  0  0  0  0
   10.3139    1.4871    1.8566 H   0  0  0  0  0  0  0  0  0  0  0  0
   10.1752   -0.8506    0.7266 H   0  0  0  0  0  0  0  0  0  0  0  0
    9.4578    0.5633   -0.1117 H   0  0  0  0  0  0  0  0  0  0  0  0
    8.0292    2.1704    1.1530 H   0  0  0  0  0  0  0  0  0  0  0  0
    7.0387    1.4985    2.4259 H   0  0  0  0  0  0  0  0  0  0  0  0
    6.9140    0.8727    0.7993 H   0  0  0  0  0  0  0  0  0  0  0  0
    8.4572   -3.0033    0.8089 H   0  0  0  0  0  0  0  0  0  0  0  0
   13.1395   -1.0693    3.9064 H   0  0  0  0  0  0  0  0  0  0  0  0
   12.5191    1.2483    1.8505 H   0  0  0  0  0  0  0  0  0  0  0  0
   13.8689    0.5002    2.6274 H   0  0  0  0  0  0  0  0  0  0  0  0
    8.9598    1.3972    4.5517 H   0  0  0  0  0  0  0  0  0  0  0  0
    8.7174    2.6328    3.3308 H   0  0  0  0  0  0  0  0  0  0  0  0
    8.9894   -1.6923   -1.0432 H   0  0  0  0  0  0  0  0  0  0  0  0
    6.3073   -3.6818    0.2426 H   0  0  0  0  0  0  0  0  0  0  0  0
   12.9288    3.6630    5.1265 H   0  0  0  0  0  0  0  0  0  0  0  0
   11.0162    3.3096    3.4832 H   0  0  0  0  0  0  0  0  0  0  0  0
   10.2808    3.2775    5.1142 H   0  0  0  0  0  0  0  0  0  0  0  0
   12.1436    0.7173    6.6361 H   0  0  0  0  0  0  0  0  0  0  0  0
   10.4708    0.7560    6.1330 H   0  0  0  0  0  0  0  0  0  0  0  0
   11.2002    2.1723    6.8506 H   0  0  0  0  0  0  0  0  0  0  0  0
   13.0225    3.2971    2.6915 H   0  0  0  0  0  0  0  0  0  0  0  0
   14.5635    2.6257    3.1366 H   0  0  0  0  0  0  0  0  0  0  0  0
    6.8826   -1.0036   -1.6174 H   0  0  0  0  0  0  0  0  0  0  0  0
   14.7292    0.6911    4.8030 H   0  0  0  0  0  0  0  0  0  0  0  0
   16.0841    3.5542    6.2229 H   0  0  0  0  0  0  0  0  0  0  0  0
   14.8750    2.9303    7.7514 H   0  0  0  0  0  0  0  0  0  0  0  0
   13.4212    1.9666    7.6465 H   0  0  0  0  0  0  0  0  0  0  0  0
   13.3827    3.6568    7.2051 H   0  0  0  0  0  0  0  0  0  0  0  0
   15.9536    4.8629    4.4294 H   0  0  0  0  0  0  0  0  0  0  0  0
   16.3990    1.7239    3.9092 H   0  0  0  0  0  0  0  0  0  0  0  0
   16.9563    1.4817    5.5977 H   0  0  0  0  0  0  0  0  0  0  0  0
   18.8701    2.0739    4.4247 H   0  0  0  0  0  0  0  0  0  0  0  0
   17.1983    3.8831    2.9204 H   0  0  0  0  0  0  0  0  0  0  0  0
   17.8929    4.6929    5.5464 H   0  0  0  0  0  0  0  0  0  0  0  0
   19.5201    4.0573    5.5767 H   0  0  0  0  0  0  0  0  0  0  0  0
   18.2800    3.3312    6.5706 H   0  0  0  0  0  0  0  0  0  0  0  0
   18.0559    1.5824    2.1709 H   0  0  0  0  0  0  0  0  0  0  0  0
   19.6118    2.3546    1.9813 H   0  0  0  0  0  0  0  0  0  0  0  0
   18.2463    2.8967    1.0354 H   0  0  0  0  0  0  0  0  0  0  0  0
   18.7878    5.4845    3.6733 H   0  0  0  0  0  0  0  0  0  0  0  0
   19.1636    5.0901    2.0131 H   0  0  0  0  0  0  0  0  0  0  0  0
   20.1193    4.4130    3.3096 H   0  0  0  0  0  0  0  0  0  0  0  0
  1  2  2  0  0  0  0
  2  3  1  0  0  0  0
  2  4  1  0  0  0  0
  3  5  2  0  0  0  0
  3 35  1  0  0  0  0
  4  6  1  0  0  0  0
  4  7  1  0  0  0  0
  4 36  1  0  0  0  0
  5  8  1  0  0  0  0
  5  9  1  0  0  0  0
  6 10  1  0  0  0  0
  6 11  1  0  0  0  0
  6  9  1  0  0  0  0
  7 12  1  0  0  0  0
  7 37  1  0  0  0  0
  7 38  1  0  0  0  0
  8 13  1  0  0  0  0
  8 14  1  0  0  0  0
  8 15  1  0  0  0  0
  9 16  1  0  0  0  0
  9 39  1  0  0  0  0
 10 17  1  0  0  0  0
 10 40  1  0  0  0  0
 10 41  1  0  0  0  0
 11 42  1  0  0  0  0
 11 43  1  0  0  0  0
 11 44  1  0  0  0  0
 12 18  1  0  0  0  0
 12 17  1  0  0  0  0
 12 45  1  0  0  0  0
 13 46  1  0  0  0  0
 14 19  1  0  0  0  0
 14 20  1  0  0  0  0
 14 21  1  0  0  0  0
 15 22  1  0  0  0  0
 15 47  1  0  0  0  0
 15 48  1  0  0  0  0
 16 20  1  0  0  0  0
 16 49  1  0  0  0  0
 16 50  1  0  0  0  0
 17 23  1  0  0  0  0
 17 51  1  0  0  0  0
 18 52  1  0  0  0  0
 19 24  1  0  0  0  0
 19 22  1  0  0  0  0
 19 53  1  0  0  0  0
 20 54  1  0  0  0  0
 20 55  1  0  0  0  0
 21 56  1  0  0  0  0
 21 57  1  0  0  0  0
 21 58  1  0  0  0  0
 22 59  1  0  0  0  0
 22 60  1  0  0  0  0
 23 61  1  0  0  0  0
 24 25  1  0  0  0  0
 24 26  1  0  0  0  0
 24 27  1  0  0  0  0
 25 62  1  0  0  0  0
 26 28  1  0  0  0  0
 26 29  1  0  0  0  0
 26 63  1  0  0  0  0
 27 64  1  0  0  0  0
 27 65  1  0  0  0  0
 27 66  1  0  0  0  0
 28 67  1  0  0  0  0
 29 30  1  0  0  0  0
 29 68  1  0  0  0  0
 29 69  1  0  0  0  0
 30 31  1  0  0  0  0
 30 32  1  0  0  0  0
 30 70  1  0  0  0  0
 31 33  1  0  0  0  0
 31 34  1  0  0  0  0
 31 71  1  0  0  0  0
 32 72  1  0  0  0  0
 32 73  1  0  0  0  0
 32 74  1  0  0  0  0
 33 75  1  0  0  0  0
 33 76  1  0  0  0  0
 33 77  1  0  0  0  0
 34 78  1  0  0  0  0
 34 79  1  0  0  0  0
 34 80  1  0  0  0  0
M  END
>  <Code-name>
034

>  <Compound>
Polyporusterone A

>  <Specie>
Polyporus umbellatus

>  <Reference>
COTA et al, 2008

>  <Organism>
Cytotoxic Activity

>  <Smiles>
CC(C)[C@@H](C)C[C@H]([C@@](C)([C@@H](CC1)[C@@](C)(CC[C@H]([C@@](C)(C[C@@H]2O)[C@H]3C[C@H]2O)C2=CC3=O)[C@]12O)O)O

>  <MMFF94 Energy>
135.52

>  <Total Molweight>
478.667

>  <Molweight>
478.667

>  <Monoisotopic Mass>
478.329440

>  <cLogP>
3.1356

>  <cLogS>
-4.353

>  <H-Acceptors>
6

>  <H-Donors>
5

>  <Total Surface Area>
345.23

>  <Relative PSA>
0.2275

>  <Polar Surface Area>
118.22

>  <Druglikeness>
-0.65944

>  <Mutagenic>
high

>  <Tumorigenic>
high

>  <Reproductive Effective>
none

>  <Irritant>
none

>  <Nasty Functions>


>  <Shape Index>
0.47059

>  <Molecular Flexibility>
0.33055

>  <Molecular Complexity>
1.0293

>  <Fragments>
1

>  <Non-H Atoms>
34

>  <Non-C/H Atoms>
6

>  <Metal-Atoms>
0

>  <Electronegative Atoms>
6

>  <Stereo Centers>
11

>  <Rotatable Bonds>
5

>  <Rings Closures>
4

>  <Small Rings>
4

>  <Aromatic Rings>
0

>  <Aromatic Atoms>
0

>  <sp3-Atoms>
30

>  <Symmetric atoms>
1

>  <Amides>
0

>  <Amines>
0

>  <Alkyl-Amines>
0

>  <Aromatic Amines>
0

>  <Aromatic Nitrogens>
0

>  <Basic Nitrogens>
0

>  <Acidic Oxygens>
0

>  <Stereo Configuration>
this enantiomer

> <Gold.Version>
5.8.1

> <Gold.Id.Protein>
ID_2|Prot_COX2_5IKQ_Alig|mol2

> <Gold.Goldscore.Fitness>
-32.3761

> <Gold.Goldscore.Internal.Vdw>
-44.4693

> <Gold.Goldscore.Internal.Torsion>
-9.8793

> <Gold.Goldscore.External.Vdw>
-17.0739

> <Gold.Goldscore.Internal.HBond>
0.0000

> <Gold.Goldscore.External.HBond>
5.3349

> <Gold.Goldscore.Internal.Correction>
-40.1143

> <Gold.Goldscore.Hbonds>
donor molecule, donor type, donor heavy atom, donor atom, acceptor molecule, acceptor atom, score
      P1  H  1374  1386       L1    28  0.89

> <Gold.Goldscore.Internal.Vdw.Weighted>
-44.4693

> <Gold.Goldscore.Internal.Torsion.Weighted>
-9.8793

> <Gold.Goldscore.External.Vdw.Weighted>
-23.4767

> <Gold.Goldscore.Internal.HBond.Weighted>
0.0000

> <Gold.Goldscore.External.HBond.Weighted>
5.3349

> <Gold.Goldscore.Internal.Correction.Weighted>
-40.1143

> <Gold.Protein.RotatedTorsions>
[ 5077 5068 5067 5065 ] final -151.54 input  179.94 | X-H torsion
[ 5157 5152 5151 5148 ] final  157.43 input -179.92 | X-H torsion
[ 5185 5176 5175 5173 ] final    5.54 input -179.99 | X-H torsion
[ 5712 5703 5702 5700 ] final  120.81 input  180.00 | X-H torsion
[ 8036 8031 8030 8027 ] final  158.98 input -179.94 | X-H torsion
[ 2749 2745 2743 2740 ] final  171.66 input  -60.05 | X-H torsion
[ 1366 1361 1360 1357 ] final  -53.46 input  -60.09 | X-H torsion
[ 2556 2551 2550 2547 ] final  126.20 input   59.97 | X-H torsion

> <Gold.Protein.ActiveResidues>
 PRO86   VAL89   HIS90   LEU93   THR94   ILE112  MET113  TYR115  VAL116  LEU117 
 THR118  SER119  ARG120  SER121  LEU123  ILE124  GLN192  SER194  PHE198  PHE201 
 ALA202  GLN203  PHE205  THR206  PHE209  PHE210  VAL228  ILE341  ILE343  VAL344 
 ILE345  GLU346  ASP347  TYR348  VAL349  GLN350  HIS351  LEU352  SER353  GLY354 
 TYR355  PHE357  LEU359  LYS360  GLU380  PHE381  ASN382  THR383  LEU384  TYR385 
 HIS386  TRP387  LEU390  VAL434  LEU507  ARG513  ALA516  ILE517  PHE518  GLY519 
 GLU520  THR521  MET522  VAL523  GLU524  VAL525  GLY526  ALA527  PRO528  PHE529 
 SER530  LEU531  LYS532  GLY533  LEU534  MET535  COH609 

> <Gold.Protein.RotatedAtoms>
   17.8434    7.7605    3.0388 H   0  0  0  0  0  0  0  0  0  0  0  0  # atno 1366 bound_to 1361
    4.8899   -9.8478    6.6784 H   0  0  0  0  0  0  0  0  0  0  0  0  # atno 2556 bound_to 2551
   -2.9160   -0.3919    0.1181 H   0  0  0  0  0  0  0  0  0  0  0  0  # atno 2749 bound_to 2745
    2.1374   -1.9001    3.7440 H   0  0  0  0  0  0  0  0  0  0  0  0  # atno 5077 bound_to 5068
   12.6657   -1.5227    9.1933 H   0  0  0  0  0  0  0  0  0  0  0  0  # atno 5157 bound_to 5152
   15.9782   -1.1039    4.6850 H   0  0  0  0  0  0  0  0  0  0  0  0  # atno 5185 bound_to 5176
    3.0509   -0.4027    2.3905 H   0  0  0  0  0  0  0  0  0  0  0  0  # atno 5712 bound_to 5703
    5.5077    3.6866    3.4585 H   0  0  0  0  0  0  0  0  0  0  0  0  # atno 8036 bound_to 8031
    0.7134   -1.4440    3.9041 LP  0  0  0  0  0  0  0  0  0  0  0  0  # atno 8267 bound_to 5068
    1.2115   -2.9493    4.2947 LP  0  0  0  0  0  0  0  0  0  0  0  0  # atno 8268 bound_to 5068
   12.4562   -3.0124    9.2375 LP  0  0  0  0  0  0  0  0  0  0  0  0  # atno 8279 bound_to 5152
   11.2291   -1.9413    9.3546 LP  0  0  0  0  0  0  0  0  0  0  0  0  # atno 8280 bound_to 5152
   16.5285    0.2325    5.0970 LP  0  0  0  0  0  0  0  0  0  0  0  0  # atno 8281 bound_to 5176
   14.9412   -0.0234    4.8110 LP  0  0  0  0  0  0  0  0  0  0  0  0  # atno 8282 bound_to 5176
    1.8013   -1.0696    2.8929 LP  0  0  0  0  0  0  0  0  0  0  0  0  # atno 8283 bound_to 5703
    1.9084    0.5405    2.6430 LP  0  0  0  0  0  0  0  0  0  0  0  0  # atno 8284 bound_to 5703
    4.7303    4.9522    3.2262 LP  0  0  0  0  0  0  0  0  0  0  0  0  # atno 8309 bound_to 8031
    6.2734    4.9445    3.7606 LP  0  0  0  0  0  0  0  0  0  0  0  0  # atno 8310 bound_to 8031
   -4.2411    0.3153    0.2043 LP  0  0  0  0  0  0  0  0  0  0  0  0  # atno 8323 bound_to 2745
   -3.4776   -0.2988    1.5107 LP  0  0  0  0  0  0  0  0  0  0  0  0  # atno 8324 bound_to 2745
   18.9003    6.6903    3.0766 LP  0  0  0  0  0  0  0  0  0  0  0  0  # atno 8335 bound_to 1361
   17.9524    6.9538    1.7733 LP  0  0  0  0  0  0  0  0  0  0  0  0  # atno 8336 bound_to 1361
    5.1987   -9.8636    8.1510 LP  0  0  0  0  0  0  0  0  0  0  0  0  # atno 8342 bound_to 2551
    4.4819   -8.5976    7.4095 LP  0  0  0  0  0  0  0  0  0  0  0  0  # atno 8343 bound_to 2551

