
035|LMW3_p|sdf|35|dock3
  -GOLD-   6 722 4553D 1   1.00000     0.00000

 78 81  0  0  0  0  0  0  0  0  1 V2000
    8.6778   -3.0669    2.7954 O   0  0  0  0  0  0  0  0  0  0  0  0
    8.8123   -1.8454    2.7790 C   0  0  0  0  0  0  0  0  0  0  0  0
   10.1517   -1.2796    3.0488 C   0  0  0  0  0  0  0  0  0  0  0  0
    7.6481   -0.8855    2.5479 C   0  0  1  0  0  0  0  0  0  0  0  0
   10.4044    0.0382    2.9598 C   0  0  0  0  0  0  0  0  0  0  0  0
    8.1137    0.3801    1.7902 C   0  0  1  0  0  0  0  0  0  0  0  0
    6.4827   -1.6035    1.8361 C   0  0  0  0  0  0  0  0  0  0  0  0
   11.7009    0.6569    3.4578 C   0  0  2  0  0  0  0  0  0  0  0  0
    9.3449    1.0415    2.5163 C   0  0  1  0  0  0  0  0  0  0  0  0
    8.5150    0.0215    0.3180 C   0  0  0  0  0  0  0  0  0  0  0  0
    6.9498    1.4019    1.7144 C   0  0  0  0  0  0  0  0  0  0  0  0
    6.6825   -1.7764    0.3260 C   0  0  2  0  0  0  0  0  0  0  0  0
   12.6127   -0.3617    3.8928 O   0  0  0  0  0  0  0  0  0  0  0  0
   11.4497    1.6187    4.6553 C   0  0  1  0  0  0  0  0  0  0  0  0
   12.4488    1.5351    2.4529 C   0  0  0  0  0  0  0  0  0  0  0  0
    9.0207    1.9199    3.7442 C   0  0  0  0  0  0  0  0  0  0  0  0
    8.0726   -1.3641   -0.1705 C   0  0  1  0  0  0  0  0  0  0  0  0
    5.7126   -0.9842   -0.3812 O   0  0  0  0  0  0  0  0  0  0  0  0
   12.8013    2.4478    4.7497 C   0  0  2  0  0  0  0  0  0  0  0  0
   10.2832    2.6037    4.3029 C   0  0  0  0  0  0  0  0  0  0  0  0
   11.0262    0.8515    5.9216 C   0  0  0  0  0  0  0  0  0  0  0  0
   13.4319    2.3050    3.3272 C   0  0  0  0  0  0  0  0  0  0  0  0
    8.0832   -1.3587   -1.6016 O   0  0  0  0  0  0  0  0  0  0  0  0
   13.8734    2.1435    5.8612 C   0  0  1  0  0  0  0  0  0  0  0  0
   14.2256    0.7432    5.8641 O   0  0  0  0  0  0  0  0  0  0  0  0
   15.2333    2.9010    5.5969 C   0  0  2  0  0  0  0  0  0  0  0  0
   13.3885    2.4906    7.2814 C   0  0  0  0  0  0  0  0  0  0  0  0
   15.0199    3.8191    4.5037 O   0  0  0  0  0  0  0  0  0  0  0  0
   16.4268    1.9863    5.2552 C   0  0  0  0  0  0  0  0  0  0  0  0
   17.7550    2.7304    5.1187 C   0  0  0  0  0  0  0  0  0  0  0  0
   18.4283    3.0780    6.2320 C   0  0  0  0  0  0  0  0  0  0  0  0
   18.2414    3.0326    3.6983 C   0  0  0  0  0  0  0  0  0  0  0  0
   18.6145    1.7446    2.9555 C   0  0  0  0  0  0  0  0  0  0  0  0
   19.4185    4.0157    3.6093 C   0  0  0  0  0  0  0  0  0  0  0  0
   10.9183   -1.9175    3.3143 H   0  0  0  0  0  0  0  0  0  0  0  0
    7.2818   -0.5574    3.4982 H   0  0  0  0  0  0  0  0  0  0  0  0
    5.5906   -1.0341    1.9938 H   0  0  0  0  0  0  0  0  0  0  0  0
    6.4248   -2.5868    2.2541 H   0  0  0  0  0  0  0  0  0  0  0  0
    9.7149    1.6755    1.7378 H   0  0  0  0  0  0  0  0  0  0  0  0
    9.5815    0.0710    0.2460 H   0  0  0  0  0  0  0  0  0  0  0  0
    8.0064    0.7278   -0.3046 H   0  0  0  0  0  0  0  0  0  0  0  0
    7.3182    2.3353    1.3430 H   0  0  0  0  0  0  0  0  0  0  0  0
    6.5365    1.5449    2.6909 H   0  0  0  0  0  0  0  0  0  0  0  0
    6.1915    1.0307    1.0571 H   0  0  0  0  0  0  0  0  0  0  0  0
    6.5678   -2.8231    0.1359 H   0  0  0  0  0  0  0  0  0  0  0  0
   12.9424   -0.8508    3.1227 H   0  0  0  0  0  0  0  0  0  0  0  0
   11.7780    2.2012    1.9517 H   0  0  0  0  0  0  0  0  0  0  0  0
   12.9273    0.9727    1.6786 H   0  0  0  0  0  0  0  0  0  0  0  0
    8.5925    1.3046    4.5078 H   0  0  0  0  0  0  0  0  0  0  0  0
    8.3353    2.6824    3.4382 H   0  0  0  0  0  0  0  0  0  0  0  0
    8.7588   -2.0801    0.2310 H   0  0  0  0  0  0  0  0  0  0  0  0
    5.7276   -1.2189   -1.3223 H   0  0  0  0  0  0  0  0  0  0  0  0
   12.5171    3.4283    5.0700 H   0  0  0  0  0  0  0  0  0  0  0  0
   10.6403    3.2971    3.5705 H   0  0  0  0  0  0  0  0  0  0  0  0
    9.9950    3.0762    5.2187 H   0  0  0  0  0  0  0  0  0  0  0  0
   10.7938    1.5483    6.6997 H   0  0  0  0  0  0  0  0  0  0  0  0
   11.8272    0.2168    6.2387 H   0  0  0  0  0  0  0  0  0  0  0  0
   10.1634    0.2565    5.7063 H   0  0  0  0  0  0  0  0  0  0  0  0
   13.6084    3.2740    2.9091 H   0  0  0  0  0  0  0  0  0  0  0  0
   14.3655    1.7853    3.3843 H   0  0  0  0  0  0  0  0  0  0  0  0
    8.9731   -1.1369   -1.9175 H   0  0  0  0  0  0  0  0  0  0  0  0
   14.2792    0.4215    4.9506 H   0  0  0  0  0  0  0  0  0  0  0  0
   15.4977    3.3926    6.5098 H   0  0  0  0  0  0  0  0  0  0  0  0
   12.8448    3.4118    7.2574 H   0  0  0  0  0  0  0  0  0  0  0  0
   14.2322    2.5911    7.9317 H   0  0  0  0  0  0  0  0  0  0  0  0
   12.7516    1.7099    7.6416 H   0  0  0  0  0  0  0  0  0  0  0  0
   14.4448    4.5432    4.7970 H   0  0  0  0  0  0  0  0  0  0  0  0
   16.2195    1.4933    4.3285 H   0  0  0  0  0  0  0  0  0  0  0  0
   16.5363    1.2999    6.0687 H   0  0  0  0  0  0  0  0  0  0  0  0
   18.0448    2.8442    7.1612 H   0  0  0  0  0  0  0  0  0  0  0  0
   19.3277    3.5783    6.1560 H   0  0  0  0  0  0  0  0  0  0  0  0
   17.4057    3.5127    3.2334 H   0  0  0  0  0  0  0  0  0  0  0  0
   17.7398    1.1424    2.8245 H   0  0  0  0  0  0  0  0  0  0  0  0
   19.3394    1.2016    3.5252 H   0  0  0  0  0  0  0  0  0  0  0  0
   19.0246    1.9909    1.9984 H   0  0  0  0  0  0  0  0  0  0  0  0
   19.1712    4.9163    4.1317 H   0  0  0  0  0  0  0  0  0  0  0  0
   19.6173    4.2420    2.5826 H   0  0  0  0  0  0  0  0  0  0  0  0
   20.2866    3.5736    4.0518 H   0  0  0  0  0  0  0  0  0  0  0  0
  1  2  2  0  0  0  0
  2  3  1  0  0  0  0
  2  4  1  0  0  0  0
  3  5  2  0  0  0  0
  3 35  1  0  0  0  0
  4  6  1  0  0  0  0
  4  7  1  0  0  0  0
  4 36  1  0  0  0  0
  5  8  1  0  0  0  0
  5  9  1  0  0  0  0
  6 10  1  0  0  0  0
  6 11  1  0  0  0  0
  6  9  1  0  0  0  0
  7 12  1  0  0  0  0
  7 37  1  0  0  0  0
  7 38  1  0  0  0  0
  8 13  1  0  0  0  0
  8 14  1  0  0  0  0
  8 15  1  0  0  0  0
  9 16  1  0  0  0  0
  9 39  1  0  0  0  0
 10 17  1  0  0  0  0
 10 40  1  0  0  0  0
 10 41  1  0  0  0  0
 11 42  1  0  0  0  0
 11 43  1  0  0  0  0
 11 44  1  0  0  0  0
 12 18  1  0  0  0  0
 12 17  1  0  0  0  0
 12 45  1  0  0  0  0
 13 46  1  0  0  0  0
 14 19  1  0  0  0  0
 14 20  1  0  0  0  0
 14 21  1  0  0  0  0
 15 22  1  0  0  0  0
 15 47  1  0  0  0  0
 15 48  1  0  0  0  0
 16 20  1  0  0  0  0
 16 49  1  0  0  0  0
 16 50  1  0  0  0  0
 17 23  1  0  0  0  0
 17 51  1  0  0  0  0
 18 52  1  0  0  0  0
 19 24  1  0  0  0  0
 19 22  1  0  0  0  0
 19 53  1  0  0  0  0
 20 54  1  0  0  0  0
 20 55  1  0  0  0  0
 21 56  1  0  0  0  0
 21 57  1  0  0  0  0
 21 58  1  0  0  0  0
 22 59  1  0  0  0  0
 22 60  1  0  0  0  0
 23 61  1  0  0  0  0
 24 25  1  0  0  0  0
 24 26  1  0  0  0  0
 24 27  1  0  0  0  0
 25 62  1  0  0  0  0
 26 28  1  0  0  0  0
 26 29  1  0  0  0  0
 26 63  1  0  0  0  0
 27 64  1  0  0  0  0
 27 65  1  0  0  0  0
 27 66  1  0  0  0  0
 28 67  1  0  0  0  0
 29 30  1  0  0  0  0
 29 68  1  0  0  0  0
 29 69  1  0  0  0  0
 30 31  2  0  0  0  0
 30 32  1  0  0  0  0
 31 70  1  0  0  0  0
 31 71  1  0  0  0  0
 32 33  1  0  0  0  0
 32 34  1  0  0  0  0
 32 72  1  0  0  0  0
 33 73  1  0  0  0  0
 33 74  1  0  0  0  0
 33 75  1  0  0  0  0
 34 76  1  0  0  0  0
 34 77  1  0  0  0  0
 34 78  1  0  0  0  0
M  END
>  <Code-name>
035

>  <Compound>
Polyporusterone B

>  <Specie>
Polyporus umbellatus

>  <Reference>
COTA et al, 2009

>  <Organism>
Cytotoxic Activity

>  <Smiles>
CC(C)C(C[C@H]([C@@](C)([C@@H](CC1)[C@@](C)(CC[C@H]([C@@](C)(C[C@@H]2O)[C@H]3C[C@H]2O)C2=CC3=O)[C@]12O)O)O)=C

>  <MMFF94 Energy>
154.09

>  <Total Molweight>
476.651

>  <Molweight>
476.651

>  <Monoisotopic Mass>
476.313790

>  <cLogP>
3.3382

>  <cLogS>
-4.256

>  <H-Acceptors>
6

>  <H-Donors>
5

>  <Total Surface Area>
343.22

>  <Relative PSA>
0.22883

>  <Polar Surface Area>
118.22

>  <Druglikeness>
-1.636

>  <Mutagenic>
high

>  <Tumorigenic>
high

>  <Reproductive Effective>
none

>  <Irritant>
none

>  <Nasty Functions>


>  <Shape Index>
0.47059

>  <Molecular Flexibility>
0.34507

>  <Molecular Complexity>
1.0309

>  <Fragments>
1

>  <Non-H Atoms>
34

>  <Non-C/H Atoms>
6

>  <Metal-Atoms>
0

>  <Electronegative Atoms>
6

>  <Stereo Centers>
10

>  <Rotatable Bonds>
5

>  <Rings Closures>
4

>  <Small Rings>
4

>  <Aromatic Rings>
0

>  <Aromatic Atoms>
0

>  <sp3-Atoms>
28

>  <Symmetric atoms>
1

>  <Amides>
0

>  <Amines>
0

>  <Alkyl-Amines>
0

>  <Aromatic Amines>
0

>  <Aromatic Nitrogens>
0

>  <Basic Nitrogens>
0

>  <Acidic Oxygens>
0

>  <Stereo Configuration>
this enantiomer

> <Gold.Version>
5.8.1

> <Gold.Id.Protein>
ID_2|Prot_COX2_5IKQ_Alig|mol2

> <Gold.Goldscore.Fitness>
-36.0302

> <Gold.Goldscore.Internal.Vdw>
-32.9963

> <Gold.Goldscore.Internal.Torsion>
-6.8788

> <Gold.Goldscore.External.Vdw>
-22.2404

> <Gold.Goldscore.Internal.HBond>
0.0000

> <Gold.Goldscore.External.HBond>
4.1453

> <Gold.Goldscore.Internal.Correction>
-30.2802

> <Gold.Goldscore.Hbonds>
donor molecule, donor type, donor heavy atom, donor atom, acceptor molecule, acceptor atom, score
      P1  H  1374  1386       L1    28  0.69
      L1  H    23    61       P1  7914  0.01

> <Gold.Goldscore.Internal.Vdw.Weighted>
-32.9963

> <Gold.Goldscore.Internal.Torsion.Weighted>
-6.8788

> <Gold.Goldscore.External.Vdw.Weighted>
-30.5805

> <Gold.Goldscore.Internal.HBond.Weighted>
0.0000

> <Gold.Goldscore.External.HBond.Weighted>
4.1453

> <Gold.Goldscore.Internal.Correction.Weighted>
-30.2802

> <Gold.Protein.RotatedTorsions>
[ 5077 5068 5067 5065 ] final  110.79 input  179.94 | X-H torsion
[ 5157 5152 5151 5148 ] final -166.13 input -179.92 | X-H torsion
[ 5185 5176 5175 5173 ] final  -14.34 input -179.99 | X-H torsion
[ 5712 5703 5702 5700 ] final  115.31 input  180.00 | X-H torsion
[ 8036 8031 8030 8027 ] final -128.21 input -179.94 | X-H torsion
[ 2749 2745 2743 2740 ] final -100.64 input  -60.05 | X-H torsion
[ 1366 1361 1360 1357 ] final -156.14 input  -60.09 | X-H torsion
[ 2556 2551 2550 2547 ] final -153.59 input   59.97 | X-H torsion

> <Gold.Protein.ActiveResidues>
 PRO86   VAL89   HIS90   LEU93   THR94   ILE112  MET113  TYR115  VAL116  LEU117 
 THR118  SER119  ARG120  SER121  LEU123  ILE124  GLN192  SER194  PHE198  PHE201 
 ALA202  GLN203  PHE205  THR206  PHE209  PHE210  VAL228  ILE341  ILE343  VAL344 
 ILE345  GLU346  ASP347  TYR348  VAL349  GLN350  HIS351  LEU352  SER353  GLY354 
 TYR355  PHE357  LEU359  LYS360  GLU380  PHE381  ASN382  THR383  LEU384  TYR385 
 HIS386  TRP387  LEU390  VAL434  LEU507  ARG513  ALA516  ILE517  PHE518  GLY519 
 GLU520  THR521  MET522  VAL523  GLU524  VAL525  GLY526  ALA527  PRO528  PHE529 
 SER530  LEU531  LYS532  GLY533  LEU534  MET535  COH609 

> <Gold.Protein.RotatedAtoms>
   18.7584    6.9431    3.1740 H   0  0  0  0  0  0  0  0  0  0  0  0  # atno 1366 bound_to 1361
    4.5015   -8.9331    6.9005 H   0  0  0  0  0  0  0  0  0  0  0  0  # atno 2556 bound_to 2551
   -3.1004   -0.4261    1.1963 H   0  0  0  0  0  0  0  0  0  0  0  0  # atno 2749 bound_to 2745
    1.0735   -1.3789    3.8388 H   0  0  0  0  0  0  0  0  0  0  0  0  # atno 5077 bound_to 5068
   12.2116   -1.3313    9.2342 H   0  0  0  0  0  0  0  0  0  0  0  0  # atno 5157 bound_to 5152
   16.2293   -1.0174    4.7435 H   0  0  0  0  0  0  0  0  0  0  0  0  # atno 5185 bound_to 5176
    3.0425   -0.4768    2.4030 H   0  0  0  0  0  0  0  0  0  0  0  0  # atno 5712 bound_to 5703
    6.2232    4.2385    3.7021 H   0  0  0  0  0  0  0  0  0  0  0  0  # atno 8036 bound_to 8031
    0.8863   -2.7900    4.3237 LP  0  0  0  0  0  0  0  0  0  0  0  0  # atno 8267 bound_to 5068
    2.3126   -2.2275    3.7616 LP  0  0  0  0  0  0  0  0  0  0  0  0  # atno 8268 bound_to 5068
   12.9251   -2.6561    9.2020 LP  0  0  0  0  0  0  0  0  0  0  0  0  # atno 8279 bound_to 5152
   11.3032   -2.5265    9.3413 LP  0  0  0  0  0  0  0  0  0  0  0  0  # atno 8280 bound_to 5152
   16.2756    0.4364    5.1217 LP  0  0  0  0  0  0  0  0  0  0  0  0  # atno 8281 bound_to 5176
   14.8925   -0.3311    4.7161 LP  0  0  0  0  0  0  0  0  0  0  0  0  # atno 8282 bound_to 5176
    1.7316   -1.0132    2.9056 LP  0  0  0  0  0  0  0  0  0  0  0  0  # atno 8283 bound_to 5703
    1.9883    0.5731    2.6152 LP  0  0  0  0  0  0  0  0  0  0  0  0  # atno 8284 bound_to 5703
    4.8394    3.8384    3.2723 LP  0  0  0  0  0  0  0  0  0  0  0  0  # atno 8309 bound_to 8031
    5.3059    5.3961    3.4222 LP  0  0  0  0  0  0  0  0  0  0  0  0  # atno 8310 bound_to 8031
   -3.1687   -0.2414   -0.2952 LP  0  0  0  0  0  0  0  0  0  0  0  0  # atno 8323 bound_to 2745
   -4.3291    0.2989    0.7188 LP  0  0  0  0  0  0  0  0  0  0  0  0  # atno 8324 bound_to 2745
   18.1612    6.7672    1.8042 LP  0  0  0  0  0  0  0  0  0  0  0  0  # atno 8335 bound_to 1361
   17.5970    7.8547    2.8839 LP  0  0  0  0  0  0  0  0  0  0  0  0  # atno 8336 bound_to 1361
    5.1907  -10.2667    7.0042 LP  0  0  0  0  0  0  0  0  0  0  0  0  # atno 8342 bound_to 2551
    4.9546   -9.2888    8.2906 LP  0  0  0  0  0  0  0  0  0  0  0  0  # atno 8343 bound_to 2551

