
003|LMW3_p|sdf|3|dock3
  -GOLD-   6 62215 13D 1   1.00000     0.00000

 96101  0  0  0  0  0  0  0  0  1 V2000
   12.9267    3.5479    4.7261 O   0  0  0  0  0  0  0  0  0  0  0  0
   11.5447    3.1265    4.3524 O   0  0  0  0  0  0  0  0  0  0  0  0
   13.4774    2.7045    5.7678 C   0  0  1  0  0  0  0  0  0  0  0  0
   11.1137    1.9726    5.1240 C   0  0  2  0  0  0  0  0  0  0  0  0
   12.4775    2.7586    6.9093 C   0  0  0  0  0  0  0  0  0  0  0  0
   13.5480    1.2628    5.1805 C   0  0  1  0  0  0  0  0  0  0  0  0
   14.8668    3.2678    6.1589 C   0  0  2  0  0  0  0  0  0  0  0  0
   11.2403    2.3709    6.5729 C   0  0  0  0  0  0  0  0  0  0  0  0
   12.0854    0.7963    4.7688 C   0  0  2  0  0  0  0  0  0  0  0  0
    9.6624    1.6956    4.7229 C   0  0  0  0  0  0  0  0  0  0  0  0
   14.6062    1.1649    4.0694 C   0  0  0  0  0  0  0  0  0  0  0  0
   16.0007    3.0569    5.1069 C   0  0  2  0  0  0  0  0  0  0  0  0
   15.4417    2.6696    7.4544 C   0  0  0  0  0  0  0  0  0  0  0  0
   11.9218    0.4622    3.2601 C   0  0  0  0  0  0  0  0  0  0  0  0
   11.7606   -0.4825    5.5882 C   0  0  0  0  0  0  0  0  0  0  0  0
    9.5370    1.3461    3.2350 C   0  0  1  0  0  0  0  0  0  0  0  0
   15.9837    1.6095    4.5628 C   0  0  0  0  0  0  0  0  0  0  0  0
   17.2778    3.3578    5.9659 C   0  0  1  0  0  0  0  0  0  0  0  0
   15.8617    4.0618    3.9458 C   0  0  0  0  0  0  0  0  0  0  0  0
   16.9591    2.7116    7.3264 C   0  0  0  0  0  0  0  0  0  0  0  0
   10.4699    0.1930    2.8556 C   0  0  0  0  0  0  0  0  0  0  0  0
    8.1621    1.0039    3.0059 O   0  0  0  0  0  0  0  0  0  0  0  0
   18.6683    2.9118    5.4278 C   0  0  1  0  0  0  0  0  0  0  0  0
    7.4118    2.0244    2.3331 C   0  0  1  0  0  0  0  0  0  0  0  0
   19.0131    3.5272    4.0885 C   0  0  0  0  0  0  0  0  0  0  0  0
   19.7876    3.1672    6.4540 C   0  0  0  0  0  0  0  0  0  0  0  0
    7.5357    1.9002    0.9147 O   0  0  0  0  0  0  0  0  0  0  0  0
    5.9406    1.9303    2.7780 C   0  0  2  0  0  0  0  0  0  0  0  0
   19.2597    2.8543    2.9507 C   0  0  0  0  0  0  0  0  0  0  0  0
    6.9474    0.7210    0.3235 C   0  0  2  0  0  0  0  0  0  0  0  0
    5.8177    2.0709    4.1976 O   0  0  0  0  0  0  0  0  0  0  0  0
    5.3471    0.5939    2.3310 C   0  0  1  0  0  0  0  0  0  0  0  0
   19.6193    3.4427    1.5969 C   0  0  1  0  0  0  0  0  0  0  0  0
    5.5186    0.4232    0.8197 C   0  0  2  0  0  0  0  0  0  0  0  0
    7.9232   -0.4664    0.3743 C   0  0  0  0  0  0  0  0  0  0  0  0
    5.9422   -0.5227    3.0213 O   0  0  0  0  0  0  0  0  0  0  0  0
   19.9453    2.4172    0.4697 C   0  0  0  0  0  0  0  0  0  0  0  0
   18.5036    4.4200    1.2036 C   0  0  0  0  0  0  0  0  0  0  0  0
    5.0790   -0.8765    0.4229 O   0  0  0  0  0  0  0  0  0  0  0  0
    7.4500   -1.5149   -0.4776 O   0  0  0  0  0  0  0  0  0  0  0  0
   18.7010    1.6467    0.0068 C   0  0  0  0  0  0  0  0  0  0  0  0
   20.5679    3.1067   -0.7539 C   0  0  0  0  0  0  0  0  0  0  0  0
   12.7292    3.0673    7.8613 H   0  0  0  0  0  0  0  0  0  0  0  0
   13.8872    0.5680    5.9203 H   0  0  0  0  0  0  0  0  0  0  0  0
   14.6288    4.3062    6.2576 H   0  0  0  0  0  0  0  0  0  0  0  0
   10.4523    2.3471    7.2389 H   0  0  0  0  0  0  0  0  0  0  0  0
    9.0755    2.5673    4.9242 H   0  0  0  0  0  0  0  0  0  0  0  0
    9.3157    0.8575    5.2907 H   0  0  0  0  0  0  0  0  0  0  0  0
   14.3113    1.7905    3.2530 H   0  0  0  0  0  0  0  0  0  0  0  0
   14.6750    0.1423    3.7621 H   0  0  0  0  0  0  0  0  0  0  0  0
   15.1102    1.6591    7.5717 H   0  0  0  0  0  0  0  0  0  0  0  0
   15.1142    3.2228    8.3097 H   0  0  0  0  0  0  0  0  0  0  0  0
   12.5032   -0.4086    3.0397 H   0  0  0  0  0  0  0  0  0  0  0  0
   12.2525    1.3168    2.7077 H   0  0  0  0  0  0  0  0  0  0  0  0
   11.8228   -0.2617    6.6334 H   0  0  0  0  0  0  0  0  0  0  0  0
   12.4638   -1.2510    5.3436 H   0  0  0  0  0  0  0  0  0  0  0  0
   10.7716   -0.8157    5.3522 H   0  0  0  0  0  0  0  0  0  0  0  0
    9.8267    2.1753    2.6240 H   0  0  0  0  0  0  0  0  0  0  0  0
   16.6735    1.5451    3.7474 H   0  0  0  0  0  0  0  0  0  0  0  0
   16.2543    0.9637    5.3718 H   0  0  0  0  0  0  0  0  0  0  0  0
   17.4286    4.4171    5.9773 H   0  0  0  0  0  0  0  0  0  0  0  0
   16.6811    3.9399    3.2685 H   0  0  0  0  0  0  0  0  0  0  0  0
   15.8656    5.0587    4.3345 H   0  0  0  0  0  0  0  0  0  0  0  0
   14.9420    3.8843    3.4285 H   0  0  0  0  0  0  0  0  0  0  0  0
   17.3588    1.7199    7.3648 H   0  0  0  0  0  0  0  0  0  0  0  0
   17.3946    3.2722    8.1269 H   0  0  0  0  0  0  0  0  0  0  0  0
   10.1351   -0.6964    3.3474 H   0  0  0  0  0  0  0  0  0  0  0  0
   10.4414    0.0859    1.7914 H   0  0  0  0  0  0  0  0  0  0  0  0
   18.5932    1.8560    5.2711 H   0  0  0  0  0  0  0  0  0  0  0  0
    7.7988    2.9868    2.5956 H   0  0  0  0  0  0  0  0  0  0  0  0
   19.0636    4.5571    4.0447 H   0  0  0  0  0  0  0  0  0  0  0  0
   19.9654    4.2193    6.5334 H   0  0  0  0  0  0  0  0  0  0  0  0
   20.6834    2.6772    6.1341 H   0  0  0  0  0  0  0  0  0  0  0  0
   19.4917    2.7825    7.4076 H   0  0  0  0  0  0  0  0  0  0  0  0
    5.4008    2.7316    2.3181 H   0  0  0  0  0  0  0  0  0  0  0  0
   19.1978    1.8255    3.0028 H   0  0  0  0  0  0  0  0  0  0  0  0
    6.7910    0.9235   -0.7154 H   0  0  0  0  0  0  0  0  0  0  0  0
    4.8788    2.0818    4.4414 H   0  0  0  0  0  0  0  0  0  0  0  0
    4.3060    0.6079    2.5775 H   0  0  0  0  0  0  0  0  0  0  0  0
   20.5554    3.9492    1.7067 H   0  0  0  0  0  0  0  0  0  0  0  0
    4.9019    1.1595    0.3480 H   0  0  0  0  0  0  0  0  0  0  0  0
    7.9919   -0.8279    1.3790 H   0  0  0  0  0  0  0  0  0  0  0  0
    8.8885   -0.1469    0.0412 H   0  0  0  0  0  0  0  0  0  0  0  0
    5.8915   -0.3754    3.9786 H   0  0  0  0  0  0  0  0  0  0  0  0
   20.6447    1.7288    0.8961 H   0  0  0  0  0  0  0  0  0  0  0  0
   18.4160    5.1808    1.9509 H   0  0  0  0  0  0  0  0  0  0  0  0
   17.5773    3.8903    1.1235 H   0  0  0  0  0  0  0  0  0  0  0  0
   18.7394    4.8703    0.2621 H   0  0  0  0  0  0  0  0  0  0  0  0
    5.0134   -0.9144   -0.5441 H   0  0  0  0  0  0  0  0  0  0  0  0
    8.0118   -2.2982   -0.3689 H   0  0  0  0  0  0  0  0  0  0  0  0
   18.9856    0.9111   -0.7164 H   0  0  0  0  0  0  0  0  0  0  0  0
   18.0028    2.3279   -0.4331 H   0  0  0  0  0  0  0  0  0  0  0  0
   18.2473    1.1640    0.8470 H   0  0  0  0  0  0  0  0  0  0  0  0
   21.3429    3.7711   -0.4330 H   0  0  0  0  0  0  0  0  0  0  0  0
   19.8143    3.6618   -1.2724 H   0  0  0  0  0  0  0  0  0  0  0  0
   20.9803    2.3675   -1.4085 H   0  0  0  0  0  0  0  0  0  0  0  0
  1  2  1  0  0  0  0
  3  1  1  0  0  0  0
  3  5  1  0  0  0  0
  3  6  1  0  0  0  0
  3  7  1  0  0  0  0
  4  2  1  0  0  0  0
  4  8  1  0  0  0  0
  4  9  1  0  0  0  0
  4 10  1  0  0  0  0
  5  8  2  0  0  0  0
  5 43  1  0  0  0  0
  6 11  1  0  0  0  0
  6  9  1  0  0  0  0
  6 44  1  0  0  0  0
  7 12  1  0  0  0  0
  7 13  1  0  0  0  0
  7 45  1  0  0  0  0
  8 46  1  0  0  0  0
  9 14  1  0  0  0  0
  9 15  1  0  0  0  0
 10 16  1  0  0  0  0
 10 47  1  0  0  0  0
 10 48  1  0  0  0  0
 11 17  1  0  0  0  0
 11 49  1  0  0  0  0
 11 50  1  0  0  0  0
 12 18  1  0  0  0  0
 12 19  1  0  0  0  0
 12 17  1  0  0  0  0
 13 20  1  0  0  0  0
 13 51  1  0  0  0  0
 13 52  1  0  0  0  0
 14 21  1  0  0  0  0
 14 53  1  0  0  0  0
 14 54  1  0  0  0  0
 15 55  1  0  0  0  0
 15 56  1  0  0  0  0
 15 57  1  0  0  0  0
 16 22  1  0  0  0  0
 16 21  1  0  0  0  0
 16 58  1  0  0  0  0
 17 59  1  0  0  0  0
 17 60  1  0  0  0  0
 18 23  1  0  0  0  0
 18 20  1  0  0  0  0
 18 61  1  0  0  0  0
 19 62  1  0  0  0  0
 19 63  1  0  0  0  0
 19 64  1  0  0  0  0
 20 65  1  0  0  0  0
 20 66  1  0  0  0  0
 21 67  1  0  0  0  0
 21 68  1  0  0  0  0
 22 24  1  0  0  0  0
 23 25  1  0  0  0  0
 23 26  1  0  0  0  0
 23 69  1  0  0  0  0
 24 27  1  0  0  0  0
 24 28  1  0  0  0  0
 24 70  1  0  0  0  0
 25 29  2  0  0  0  0
 25 71  1  0  0  0  0
 26 72  1  0  0  0  0
 26 73  1  0  0  0  0
 26 74  1  0  0  0  0
 27 30  1  0  0  0  0
 28 31  1  0  0  0  0
 28 32  1  0  0  0  0
 28 75  1  0  0  0  0
 29 33  1  0  0  0  0
 29 76  1  0  0  0  0
 30 34  1  0  0  0  0
 30 35  1  0  0  0  0
 30 77  1  0  0  0  0
 31 78  1  0  0  0  0
 32 36  1  0  0  0  0
 32 34  1  0  0  0  0
 32 79  1  0  0  0  0
 33 37  1  0  0  0  0
 33 38  1  0  0  0  0
 33 80  1  0  0  0  0
 34 39  1  0  0  0  0
 34 81  1  0  0  0  0
 35 40  1  0  0  0  0
 35 82  1  0  0  0  0
 35 83  1  0  0  0  0
 36 84  1  0  0  0  0
 37 41  1  0  0  0  0
 37 42  1  0  0  0  0
 37 85  1  0  0  0  0
 38 86  1  0  0  0  0
 38 87  1  0  0  0  0
 38 88  1  0  0  0  0
 39 89  1  0  0  0  0
 40 90  1  0  0  0  0
 41 91  1  0  0  0  0
 41 92  1  0  0  0  0
 41 93  1  0  0  0  0
 42 94  1  0  0  0  0
 42 95  1  0  0  0  0
 42 96  1  0  0  0  0
M  END
>  <Code-name>
003

>  <Compound>
3β,5α,8α,22E)-5,8-epidioxyergosta-6,22-
dien-3-yl β-D-glucopyranoside

>  <Specie>
Morchella esculenta

>  <Reference>
LEE et al., 2018

>  <Organism>
Antitumoral Activity

>  <Smiles>
CC(C)[C@@H](C)/C=C/[C@@H](C)[C@H](CC1)[C@@](C)(CC[C@@H]2[C@@]3(C)CC[C@H](C4)O[C@H]([C@@H]([C@@H]5O)O)O[C@@H](CO)[C@H]5O)[C@H]1[C@@]21OO[C@@]34C=C1

>  <MMFF94 Energy>
253.7

>  <Total Molweight>
590.795

>  <Molweight>
590.795

>  <Monoisotopic Mass>
590.381870

>  <cLogP>
4.5488

>  <cLogS>
-5.689

>  <H-Acceptors>
8

>  <H-Donors>
4

>  <Total Surface Area>
426.18

>  <Relative PSA>
0.21681

>  <Polar Surface Area>
117.84

>  <Druglikeness>
-6.5962

>  <Mutagenic>
none

>  <Tumorigenic>
high

>  <Reproductive Effective>
none

>  <Irritant>
none

>  <Nasty Functions>
peroxo

>  <Shape Index>
0.5

>  <Molecular Flexibility>
0.31158

>  <Molecular Complexity>
1.022

>  <Fragments>
1

>  <Non-H Atoms>
42

>  <Non-C/H Atoms>
8

>  <Metal-Atoms>
0

>  <Electronegative Atoms>
8

>  <Stereo Centers>
15

>  <Rotatable Bonds>
7

>  <Rings Closures>
6

>  <Small Rings>
7

>  <Aromatic Rings>
0

>  <Aromatic Atoms>
0

>  <sp3-Atoms>
38

>  <Symmetric atoms>
1

>  <Amides>
0

>  <Amines>
0

>  <Alkyl-Amines>
0

>  <Aromatic Amines>
0

>  <Aromatic Nitrogens>
0

>  <Basic Nitrogens>
0

>  <Acidic Oxygens>
0

>  <Stereo Configuration>
this enantiomer

> <Gold.Version>
5.8.1

> <Gold.Id.Protein>
ID_2|Prot_COX2_5IKQ_Alig|mol2

> <Gold.Goldscore.Fitness>
-100.4011

> <Gold.Goldscore.Internal.Vdw>
-15.9252

> <Gold.Goldscore.Internal.Torsion>
-7.1987

> <Gold.Goldscore.External.Vdw>
-71.4804

> <Gold.Goldscore.Internal.HBond>
0.0000

> <Gold.Goldscore.External.HBond>
0.0000

> <Gold.Goldscore.Internal.Correction>
-21.0084

> <Gold.Goldscore.Internal.Vdw.Weighted>
-15.9252

> <Gold.Goldscore.Internal.Torsion.Weighted>
-7.1987

> <Gold.Goldscore.External.Vdw.Weighted>
-98.2856

> <Gold.Goldscore.Internal.HBond.Weighted>
0.0000

> <Gold.Goldscore.External.HBond.Weighted>
0.0000

> <Gold.Goldscore.Internal.Correction.Weighted>
-21.0084

> <Gold.Protein.RotatedTorsions>
[ 5077 5068 5067 5065 ] final  169.82 input  179.94 | X-H torsion
[ 5157 5152 5151 5148 ] final -152.09 input -179.92 | X-H torsion
[ 5185 5176 5175 5173 ] final  -14.60 input -179.99 | X-H torsion
[ 5712 5703 5702 5700 ] final -109.20 input  180.00 | X-H torsion
[ 8036 8031 8030 8027 ] final  -60.05 input -179.94 | X-H torsion
[ 2749 2745 2743 2740 ] final   58.52 input  -60.05 | X-H torsion
[ 1366 1361 1360 1357 ] final  -83.53 input  -60.09 | X-H torsion
[ 2556 2551 2550 2547 ] final  -79.09 input   59.97 | X-H torsion

> <Gold.Protein.ActiveResidues>
 PRO86   VAL89   HIS90   LEU93   THR94   ILE112  MET113  TYR115  VAL116  LEU117 
 THR118  SER119  ARG120  SER121  LEU123  ILE124  GLN192  SER194  PHE198  PHE201 
 ALA202  GLN203  PHE205  THR206  PHE209  PHE210  VAL228  ILE341  ILE343  VAL344 
 ILE345  GLU346  ASP347  TYR348  VAL349  GLN350  HIS351  LEU352  SER353  GLY354 
 TYR355  PHE357  LEU359  LYS360  GLU380  PHE381  ASN382  THR383  LEU384  TYR385 
 HIS386  TRP387  LEU390  VAL434  LEU507  ARG513  ALA516  ILE517  PHE518  GLY519 
 GLU520  THR521  MET522  VAL523  GLU524  VAL525  GLY526  ALA527  PRO528  PHE529 
 SER530  LEU531  LYS532  GLY533  LEU534  MET535  COH609 

> <Gold.Protein.RotatedAtoms>
   18.1249    7.6201    3.3019 H   0  0  0  0  0  0  0  0  0  0  0  0  # atno 1366 bound_to 1361
    4.6350   -8.8729    7.8460 H   0  0  0  0  0  0  0  0  0  0  0  0  # atno 2556 bound_to 2551
   -4.0587    0.2622    0.1855 H   0  0  0  0  0  0  0  0  0  0  0  0  # atno 2749 bound_to 2745
    1.8276   -1.4843    3.6805 H   0  0  0  0  0  0  0  0  0  0  0  0  # atno 5077 bound_to 5068
   12.0192   -1.3397    9.2504 H   0  0  0  0  0  0  0  0  0  0  0  0  # atno 5157 bound_to 5152
   16.2323   -1.0157    4.7443 H   0  0  0  0  0  0  0  0  0  0  0  0  # atno 5185 bound_to 5176
    1.8500    0.3286    2.6420 H   0  0  0  0  0  0  0  0  0  0  0  0  # atno 5712 bound_to 5703
    5.9863    5.0852    3.6137 H   0  0  0  0  0  0  0  0  0  0  0  0  # atno 8036 bound_to 8031
    0.4831   -1.9717    4.1455 LP  0  0  0  0  0  0  0  0  0  0  0  0  # atno 8267 bound_to 5068
    1.8128   -2.9195    4.1292 LP  0  0  0  0  0  0  0  0  0  0  0  0  # atno 8268 bound_to 5068
   13.0318   -2.4516    9.1954 LP  0  0  0  0  0  0  0  0  0  0  0  0  # atno 8279 bound_to 5152
   11.4267   -2.7209    9.3285 LP  0  0  0  0  0  0  0  0  0  0  0  0  # atno 8280 bound_to 5152
   16.2719    0.4384    5.1218 LP  0  0  0  0  0  0  0  0  0  0  0  0  # atno 8281 bound_to 5176
   14.8926   -0.3352    4.7149 LP  0  0  0  0  0  0  0  0  0  0  0  0  # atno 8282 bound_to 5176
    3.2095   -0.2516    2.3704 LP  0  0  0  0  0  0  0  0  0  0  0  0  # atno 8283 bound_to 5703
    1.9417   -1.1551    2.8635 LP  0  0  0  0  0  0  0  0  0  0  0  0  # atno 8284 bound_to 5703
    5.8107    3.5922    3.6105 LP  0  0  0  0  0  0  0  0  0  0  0  0  # atno 8309 bound_to 8031
    4.6189    4.6264    3.1901 LP  0  0  0  0  0  0  0  0  0  0  0  0  # atno 8310 bound_to 8031
   -3.5730   -0.2442    1.5163 LP  0  0  0  0  0  0  0  0  0  0  0  0  # atno 8323 bound_to 2745
   -2.7770   -0.5228    0.1180 LP  0  0  0  0  0  0  0  0  0  0  0  0  # atno 8324 bound_to 2745
   18.8665    6.4978    2.6277 LP  0  0  0  0  0  0  0  0  0  0  0  0  # atno 8335 bound_to 1361
   17.6494    7.3142    1.9075 LP  0  0  0  0  0  0  0  0  0  0  0  0  # atno 8336 bound_to 1361
    4.6935   -9.4067    6.4404 LP  0  0  0  0  0  0  0  0  0  0  0  0  # atno 8342 bound_to 2551
    5.2921  -10.2209    7.7231 LP  0  0  0  0  0  0  0  0  0  0  0  0  # atno 8343 bound_to 2551

