
039|LMW3_p|sdf|39|dock6
  -GOLD-   6 722 5 73D 1   1.00000     0.00000

 77 80  0  0  0  0  0  0  0  0  1 V2000
    9.3618   -3.7544    2.6537 O   0  0  0  0  0  0  0  0  0  0  0  0
    9.3964   -2.5255    2.6986 C   0  0  0  0  0  0  0  0  0  0  0  0
   10.6837   -1.8753    3.0166 C   0  0  0  0  0  0  0  0  0  0  0  0
    8.1580   -1.6582    2.4924 C   0  0  1  0  0  0  0  0  0  0  0  0
   10.8401   -0.5397    3.0207 C   0  0  0  0  0  0  0  0  0  0  0  0
    8.5170   -0.2824    1.8775 C   0  0  1  0  0  0  0  0  0  0  0  0
    7.1347   -2.4286    1.6380 C   0  0  0  0  0  0  0  0  0  0  0  0
   12.1014    0.1366    3.5406 C   0  0  2  0  0  0  0  0  0  0  0  0
    9.6998    0.4011    2.6673 C   0  0  1  0  0  0  0  0  0  0  0  0
    8.9672   -0.4768    0.3862 C   0  0  0  0  0  0  0  0  0  0  0  0
    7.2768    0.6462    1.9141 C   0  0  0  0  0  0  0  0  0  0  0  0
    7.6292   -2.6486    0.2068 C   0  0  2  0  0  0  0  0  0  0  0  0
   13.0267   -0.8758    3.9719 O   0  0  0  0  0  0  0  0  0  0  0  0
   11.8213    1.1038    4.7481 C   0  0  1  0  0  0  0  0  0  0  0  0
   12.8563    1.0207    2.5465 C   0  0  0  0  0  0  0  0  0  0  0  0
    9.3248    1.1094    3.9850 C   0  0  0  0  0  0  0  0  0  0  0  0
    8.0405   -1.3382   -0.4782 C   0  0  1  0  0  0  0  0  0  0  0  0
    6.5797   -3.2451   -0.5657 O   0  0  0  0  0  0  0  0  0  0  0  0
   13.0453    2.1287    4.7123 C   0  0  2  0  0  0  0  0  0  0  0  0
   10.5134    1.9238    4.5141 C   0  0  0  0  0  0  0  0  0  0  0  0
   11.6559    0.2840    6.0457 C   0  0  0  0  0  0  0  0  0  0  0  0
   13.8548    1.7283    3.4573 C   0  0  0  0  0  0  0  0  0  0  0  0
    6.8726   -0.5965   -0.8351 O   0  0  0  0  0  0  0  0  0  0  0  0
   13.9021    2.3225    5.9984 C   0  0  1  0  0  0  0  0  0  0  0  0
   15.2287    3.1167    5.7752 C   0  0  2  0  0  0  0  0  0  0  0  0
   13.0711    2.9943    7.1093 C   0  0  0  0  0  0  0  0  0  0  0  0
   15.1095    3.8573    4.5510 O   0  0  0  0  0  0  0  0  0  0  0  0
   16.4965    2.2318    5.6956 C   0  0  0  0  0  0  0  0  0  0  0  0
   17.8202    2.9100    5.3436 C   0  0  0  0  0  0  0  0  0  0  0  0
   18.7980    3.1516    6.2357 C   0  0  0  0  0  0  0  0  0  0  0  0
   18.0111    3.3442    3.8903 C   0  0  0  0  0  0  0  0  0  0  0  0
   19.2500    2.7138    3.2496 C   0  0  0  0  0  0  0  0  0  0  0  0
   18.0444    4.8687    3.7515 C   0  0  0  0  0  0  0  0  0  0  0  0
   11.4958   -2.4698    3.2448 H   0  0  0  0  0  0  0  0  0  0  0  0
    7.7168   -1.4477    3.4441 H   0  0  0  0  0  0  0  0  0  0  0  0
    6.2224   -1.8705    1.6058 H   0  0  0  0  0  0  0  0  0  0  0  0
    6.9870   -3.3887    2.0868 H   0  0  0  0  0  0  0  0  0  0  0  0
    9.9985    1.1317    1.9449 H   0  0  0  0  0  0  0  0  0  0  0  0
    9.9336   -0.9360    0.3912 H   0  0  0  0  0  0  0  0  0  0  0  0
    8.9540    0.4988   -0.0530 H   0  0  0  0  0  0  0  0  0  0  0  0
    7.5674    1.6402    1.6451 H   0  0  0  0  0  0  0  0  0  0  0  0
    6.8632    0.6502    2.9010 H   0  0  0  0  0  0  0  0  0  0  0  0
    6.5434    0.2892    1.2215 H   0  0  0  0  0  0  0  0  0  0  0  0
    8.4889   -3.2832    0.2614 H   0  0  0  0  0  0  0  0  0  0  0  0
   13.4158   -1.3097    3.1965 H   0  0  0  0  0  0  0  0  0  0  0  0
   12.2007    1.7190    2.0696 H   0  0  0  0  0  0  0  0  0  0  0  0
   13.3098    0.4802    1.7422 H   0  0  0  0  0  0  0  0  0  0  0  0
    9.0486    0.3756    4.7131 H   0  0  0  0  0  0  0  0  0  0  0  0
    8.5054    1.7724    3.8007 H   0  0  0  0  0  0  0  0  0  0  0  0
    8.5945   -1.6006   -1.3551 H   0  0  0  0  0  0  0  0  0  0  0  0
    6.4868   -4.1784   -0.3186 H   0  0  0  0  0  0  0  0  0  0  0  0
   12.6521    3.1228    4.6656 H   0  0  0  0  0  0  0  0  0  0  0  0
   10.7281    2.6967    3.8059 H   0  0  0  0  0  0  0  0  0  0  0  0
   10.2181    2.2969    5.4725 H   0  0  0  0  0  0  0  0  0  0  0  0
   12.6197   -0.0010    6.4129 H   0  0  0  0  0  0  0  0  0  0  0  0
   11.0781   -0.5932    5.8422 H   0  0  0  0  0  0  0  0  0  0  0  0
   11.1554    0.8781    6.7816 H   0  0  0  0  0  0  0  0  0  0  0  0
   14.2529    2.5964    2.9748 H   0  0  0  0  0  0  0  0  0  0  0  0
   14.6872    1.1018    3.7013 H   0  0  0  0  0  0  0  0  0  0  0  0
    6.3655   -1.0910   -1.4978 H   0  0  0  0  0  0  0  0  0  0  0  0
   14.1909    1.3364    6.2967 H   0  0  0  0  0  0  0  0  0  0  0  0
   15.3557    3.7494    6.6287 H   0  0  0  0  0  0  0  0  0  0  0  0
   12.5941    3.8688    6.7186 H   0  0  0  0  0  0  0  0  0  0  0  0
   13.7144    3.2703    7.9185 H   0  0  0  0  0  0  0  0  0  0  0  0
   12.3278    2.3100    7.4620 H   0  0  0  0  0  0  0  0  0  0  0  0
   14.4519    4.5617    4.6619 H   0  0  0  0  0  0  0  0  0  0  0  0
   16.3156    1.4817    4.9543 H   0  0  0  0  0  0  0  0  0  0  0  0
   16.6360    1.8720    6.6936 H   0  0  0  0  0  0  0  0  0  0  0  0
   18.6814    2.8635    7.2198 H   0  0  0  0  0  0  0  0  0  0  0  0
   19.6646    3.6251    5.9360 H   0  0  0  0  0  0  0  0  0  0  0  0
   17.1573    2.9818    3.3568 H   0  0  0  0  0  0  0  0  0  0  0  0
   19.2021    2.8334    2.1874 H   0  0  0  0  0  0  0  0  0  0  0  0
   19.2849    1.6718    3.4900 H   0  0  0  0  0  0  0  0  0  0  0  0
   20.1292    3.1958    3.6235 H   0  0  0  0  0  0  0  0  0  0  0  0
   18.8632    5.2606    4.3180 H   0  0  0  0  0  0  0  0  0  0  0  0
   17.1275    5.2804    4.1185 H   0  0  0  0  0  0  0  0  0  0  0  0
   18.1658    5.1304    2.7212 H   0  0  0  0  0  0  0  0  0  0  0  0
  1  2  2  0  0  0  0
  2  3  1  0  0  0  0
  2  4  1  0  0  0  0
  3  5  2  0  0  0  0
  3 34  1  0  0  0  0
  4  6  1  0  0  0  0
  4  7  1  0  0  0  0
  4 35  1  0  0  0  0
  5  8  1  0  0  0  0
  5  9  1  0  0  0  0
  6 10  1  0  0  0  0
  6 11  1  0  0  0  0
  6  9  1  0  0  0  0
  7 12  1  0  0  0  0
  7 36  1  0  0  0  0
  7 37  1  0  0  0  0
  8 13  1  0  0  0  0
  8 14  1  0  0  0  0
  8 15  1  0  0  0  0
  9 16  1  0  0  0  0
  9 38  1  0  0  0  0
 10 17  1  0  0  0  0
 10 39  1  0  0  0  0
 10 40  1  0  0  0  0
 11 41  1  0  0  0  0
 11 42  1  0  0  0  0
 11 43  1  0  0  0  0
 12 18  1  0  0  0  0
 12 17  1  0  0  0  0
 12 44  1  0  0  0  0
 13 45  1  0  0  0  0
 14 19  1  0  0  0  0
 14 20  1  0  0  0  0
 14 21  1  0  0  0  0
 15 22  1  0  0  0  0
 15 46  1  0  0  0  0
 15 47  1  0  0  0  0
 16 20  1  0  0  0  0
 16 48  1  0  0  0  0
 16 49  1  0  0  0  0
 17 23  1  0  0  0  0
 17 50  1  0  0  0  0
 18 51  1  0  0  0  0
 19 24  1  0  0  0  0
 19 22  1  0  0  0  0
 19 52  1  0  0  0  0
 20 53  1  0  0  0  0
 20 54  1  0  0  0  0
 21 55  1  0  0  0  0
 21 56  1  0  0  0  0
 21 57  1  0  0  0  0
 22 58  1  0  0  0  0
 22 59  1  0  0  0  0
 23 60  1  0  0  0  0
 24 25  1  0  0  0  0
 24 26  1  0  0  0  0
 24 61  1  0  0  0  0
 25 27  1  0  0  0  0
 25 28  1  0  0  0  0
 25 62  1  0  0  0  0
 26 63  1  0  0  0  0
 26 64  1  0  0  0  0
 26 65  1  0  0  0  0
 27 66  1  0  0  0  0
 28 29  1  0  0  0  0
 28 67  1  0  0  0  0
 28 68  1  0  0  0  0
 29 30  2  0  0  0  0
 29 31  1  0  0  0  0
 30 69  1  0  0  0  0
 30 70  1  0  0  0  0
 31 32  1  0  0  0  0
 31 33  1  0  0  0  0
 31 71  1  0  0  0  0
 32 72  1  0  0  0  0
 32 73  1  0  0  0  0
 32 74  1  0  0  0  0
 33 75  1  0  0  0  0
 33 76  1  0  0  0  0
 33 77  1  0  0  0  0
M  END
>  <Code-name>
039

>  <Compound>
Polyporusterone  G

>  <Specie>
Polyporus umbellatus

>  <Reference>
COTA et al, 2010

>  <Organism>
Cytotoxic Activity

>  <Smiles>
CC(C)C(C[C@H]([C@@H](C)[C@@H](CC1)[C@@](C)(CC[C@H]([C@@](C)(C[C@@H]2O)[C@H]3C[C@H]2O)C2=CC3=O)[C@]12O)O)=C

>  <MMFF94 Energy>
129.77

>  <Total Molweight>
460.652

>  <Molweight>
460.652

>  <Monoisotopic Mass>
460.318875

>  <cLogP>
4.1977

>  <cLogS>
-4.706

>  <H-Acceptors>
5

>  <H-Donors>
4

>  <Total Surface Area>
338.96

>  <Relative PSA>
0.19306

>  <Polar Surface Area>
97.99

>  <Druglikeness>
-2.2573

>  <Mutagenic>
low

>  <Tumorigenic>
high

>  <Reproductive Effective>
none

>  <Irritant>
none

>  <Nasty Functions>


>  <Shape Index>
0.48485

>  <Molecular Flexibility>
0.35024

>  <Molecular Complexity>
1.0077

>  <Fragments>
1

>  <Non-H Atoms>
33

>  <Non-C/H Atoms>
5

>  <Metal-Atoms>
0

>  <Electronegative Atoms>
5

>  <Stereo Centers>
10

>  <Rotatable Bonds>
5

>  <Rings Closures>
4

>  <Small Rings>
4

>  <Aromatic Rings>
0

>  <Aromatic Atoms>
0

>  <sp3-Atoms>
27

>  <Symmetric atoms>
1

>  <Amides>
0

>  <Amines>
0

>  <Alkyl-Amines>
0

>  <Aromatic Amines>
0

>  <Aromatic Nitrogens>
0

>  <Basic Nitrogens>
0

>  <Acidic Oxygens>
0

>  <Stereo Configuration>
this enantiomer

> <Gold.Version>
5.8.1

> <Gold.Id.Protein>
ID_2|Prot_COX2_5IKQ_Alig|mol2

> <Gold.Goldscore.Fitness>
-10.3630

> <Gold.Goldscore.Internal.Vdw>
-29.3153

> <Gold.Goldscore.Internal.Torsion>
-7.1147

> <Gold.Goldscore.External.Vdw>
-6.6464

> <Gold.Goldscore.Internal.HBond>
0.0000

> <Gold.Goldscore.External.HBond>
5.3974

> <Gold.Goldscore.Internal.Correction>
-29.8083

> <Gold.Goldscore.Hbonds>
donor molecule, donor type, donor heavy atom, donor atom, acceptor molecule, acceptor atom, score
      P1  H  1374  1386       L1    27  0.57
      P1  H  5176  5185       L1    13  0.99

> <Gold.Goldscore.Internal.Vdw.Weighted>
-29.3153

> <Gold.Goldscore.Internal.Torsion.Weighted>
-7.1147

> <Gold.Goldscore.External.Vdw.Weighted>
-9.1387

> <Gold.Goldscore.Internal.HBond.Weighted>
0.0000

> <Gold.Goldscore.External.HBond.Weighted>
5.3974

> <Gold.Goldscore.Internal.Correction.Weighted>
-29.8083

> <Gold.Protein.RotatedTorsions>
[ 5077 5068 5067 5065 ] final  178.46 input  179.94 | X-H torsion
[ 5157 5152 5151 5148 ] final -149.35 input -179.92 | X-H torsion
[ 5185 5176 5175 5173 ] final   86.46 input -179.99 | X-H torsion
[ 5712 5703 5702 5700 ] final  120.35 input  180.00 | X-H torsion
[ 8036 8031 8030 8027 ] final -162.81 input -179.94 | X-H torsion
[ 2749 2745 2743 2740 ] final  -49.27 input  -60.05 | X-H torsion
[ 1366 1361 1360 1357 ] final  -43.04 input  -60.09 | X-H torsion
[ 2556 2551 2550 2547 ] final -147.14 input   59.97 | X-H torsion

> <Gold.Protein.ActiveResidues>
 PRO86   VAL89   HIS90   LEU93   THR94   ILE112  MET113  TYR115  VAL116  LEU117 
 THR118  SER119  ARG120  SER121  LEU123  ILE124  GLN192  SER194  PHE198  PHE201 
 ALA202  GLN203  PHE205  THR206  PHE209  PHE210  VAL228  ILE341  ILE343  VAL344 
 ILE345  GLU346  ASP347  TYR348  VAL349  GLN350  HIS351  LEU352  SER353  GLY354 
 TYR355  PHE357  LEU359  LYS360  GLU380  PHE381  ASN382  THR383  LEU384  TYR385 
 HIS386  TRP387  LEU390  VAL434  LEU507  ARG513  ALA516  ILE517  PHE518  GLY519 
 GLU520  THR521  MET522  VAL523  GLU524  VAL525  GLY526  ALA527  PRO528  PHE529 
 SER530  LEU531  LYS532  GLY533  LEU534  MET535  COH609 

> <Gold.Protein.RotatedAtoms>
   17.7668    7.7742    2.9182 H   0  0  0  0  0  0  0  0  0  0  0  0  # atno 1366 bound_to 1361
    4.4908   -8.8834    6.9734 H   0  0  0  0  0  0  0  0  0  0  0  0  # atno 2556 bound_to 2551
   -3.6862   -0.1063    1.3492 H   0  0  0  0  0  0  0  0  0  0  0  0  # atno 2749 bound_to 2745
    1.9194   -1.5599    3.6829 H   0  0  0  0  0  0  0  0  0  0  0  0  # atno 5077 bound_to 5068
   11.9823   -1.3468    9.2535 H   0  0  0  0  0  0  0  0  0  0  0  0  # atno 5157 bound_to 5152
   15.0909   -0.5962    4.7122 H   0  0  0  0  0  0  0  0  0  0  0  0  # atno 5185 bound_to 5176
    3.0505   -0.4090    2.3914 H   0  0  0  0  0  0  0  0  0  0  0  0  # atno 5712 bound_to 5703
    5.9697    3.8532    3.6172 H   0  0  0  0  0  0  0  0  0  0  0  0  # atno 8036 bound_to 8031
    0.5007   -1.8398    4.0955 LP  0  0  0  0  0  0  0  0  0  0  0  0  # atno 8267 bound_to 5068
    1.6852   -2.9609    4.1765 LP  0  0  0  0  0  0  0  0  0  0  0  0  # atno 8268 bound_to 5068
   13.0466   -2.4092    9.1947 LP  0  0  0  0  0  0  0  0  0  0  0  0  # atno 8279 bound_to 5152
   11.4560   -2.7549    9.3256 LP  0  0  0  0  0  0  0  0  0  0  0  0  # atno 8280 bound_to 5152
   16.5519   -0.9451    4.7616 LP  0  0  0  0  0  0  0  0  0  0  0  0  # atno 8281 bound_to 5176
   15.9832    0.5446    5.1137 LP  0  0  0  0  0  0  0  0  0  0  0  0  # atno 8282 bound_to 5176
    1.7952   -1.0651    2.8940 LP  0  0  0  0  0  0  0  0  0  0  0  0  # atno 8283 bound_to 5703
    1.9151    0.5436    2.6406 LP  0  0  0  0  0  0  0  0  0  0  0  0  # atno 8284 bound_to 5703
    4.6151    4.3463    3.1908 LP  0  0  0  0  0  0  0  0  0  0  0  0  # atno 8309 bound_to 8031
    5.8343    5.3504    3.6055 LP  0  0  0  0  0  0  0  0  0  0  0  0  # atno 8310 bound_to 8031
   -2.7192   -0.5800    0.2986 LP  0  0  0  0  0  0  0  0  0  0  0  0  # atno 8323 bound_to 2745
   -4.0769    0.2544   -0.0581 LP  0  0  0  0  0  0  0  0  0  0  0  0  # atno 8324 bound_to 2745
   18.8668    6.7904    3.2115 LP  0  0  0  0  0  0  0  0  0  0  0  0  # atno 8335 bound_to 1361
   18.0776    6.8373    1.7826 LP  0  0  0  0  0  0  0  0  0  0  0  0  # atno 8336 bound_to 1361
    5.1578  -10.2307    6.9100 LP  0  0  0  0  0  0  0  0  0  0  0  0  # atno 8342 bound_to 2551
    5.0003   -9.3843    8.2976 LP  0  0  0  0  0  0  0  0  0  0  0  0  # atno 8343 bound_to 2551

