
042|LMW3_p|sdf|42|dock12
  -GOLD-   6 722 5103D 1   1.00000     0.00000

 40 42  0  0  0  0  0  0  0  0  1 V2000
   12.3405    0.2254    6.3992 O   0  0  0  0  0  0  0  0  0  0  0  0
   12.9558    0.8632    5.2797 C   0  0  2  0  0  0  0  0  0  0  0  0
   12.5294    2.3474    5.1989 C   0  0  0  0  0  0  0  0  0  0  0  0
   12.4219    0.2557    3.9618 C   0  0  1  0  0  0  0  0  0  0  0  0
   11.0902    2.2426    4.6579 C   0  0  0  0  0  0  0  0  0  0  0  0
   12.5523    3.0597    6.5579 C   0  0  0  0  0  0  0  0  0  0  0  0
   13.4201    3.1395    4.2227 C   0  0  0  0  0  0  0  0  0  0  0  0
   12.3617   -1.2674    3.8887 C   0  0  0  0  0  0  0  0  0  0  0  0
   11.0623    1.0082    3.7304 C   0  0  2  0  0  0  0  0  0  0  0  0
   11.2030   -1.8468    3.5407 C   0  0  0  0  0  0  0  0  0  0  0  0
   13.5988   -2.0300    4.2562 C   0  0  0  0  0  0  0  0  0  0  0  0
    9.7895    0.1565    3.9676 C   0  0  0  0  0  0  0  0  0  0  0  0
    9.8969   -1.1500    3.1737 C   0  0  2  0  0  0  0  0  0  0  0  0
   10.6029   -3.2277    3.5080 C   0  0  0  0  0  0  0  0  0  0  0  0
    9.2710   -2.4574    3.7630 C   0  0  0  0  0  0  0  0  0  0  0  0
    9.6370   -0.9681    1.6779 C   0  0  0  0  0  0  0  0  0  0  0  0
   12.7742    0.5174    7.2163 H   0  0  0  0  0  0  0  0  0  0  0  0
   14.0120    0.7423    5.4007 H   0  0  0  0  0  0  0  0  0  0  0  0
   13.1084    0.4106    3.1557 H   0  0  0  0  0  0  0  0  0  0  0  0
   10.8364    3.1246    4.1079 H   0  0  0  0  0  0  0  0  0  0  0  0
   10.3824    2.1456    5.4544 H   0  0  0  0  0  0  0  0  0  0  0  0
   13.5339    2.9938    6.9786 H   0  0  0  0  0  0  0  0  0  0  0  0
   11.8498    2.5936    7.2168 H   0  0  0  0  0  0  0  0  0  0  0  0
   12.2892    4.0885    6.4260 H   0  0  0  0  0  0  0  0  0  0  0  0
   14.4407    3.0730    4.5372 H   0  0  0  0  0  0  0  0  0  0  0  0
   13.1155    4.1652    4.2141 H   0  0  0  0  0  0  0  0  0  0  0  0
   13.3226    2.7303    3.2389 H   0  0  0  0  0  0  0  0  0  0  0  0
   10.9909    1.2714    2.6957 H   0  0  0  0  0  0  0  0  0  0  0  0
   13.7764   -1.9365    5.3072 H   0  0  0  0  0  0  0  0  0  0  0  0
   14.4345   -1.6355    3.7168 H   0  0  0  0  0  0  0  0  0  0  0  0
   13.4687   -3.0624    4.0070 H   0  0  0  0  0  0  0  0  0  0  0  0
    8.9288    0.7024    3.6420 H   0  0  0  0  0  0  0  0  0  0  0  0
    9.6966   -0.0651    5.0102 H   0  0  0  0  0  0  0  0  0  0  0  0
   10.9137   -3.8846    4.2933 H   0  0  0  0  0  0  0  0  0  0  0  0
   10.7469   -3.9223    2.7069 H   0  0  0  0  0  0  0  0  0  0  0  0
    8.4387   -2.8312    3.2040 H   0  0  0  0  0  0  0  0  0  0  0  0
    8.8335   -2.4504    4.7394 H   0  0  0  0  0  0  0  0  0  0  0  0
    9.5781   -1.9271    1.2069 H   0  0  0  0  0  0  0  0  0  0  0  0
   10.4364   -0.4056    1.2428 H   0  0  0  0  0  0  0  0  0  0  0  0
    8.7145   -0.4445    1.5372 H   0  0  0  0  0  0  0  0  0  0  0  0
  1  2  1  0  0  0  0
  1 17  1  0  0  0  0
  2  3  1  0  0  0  0
  2  4  1  0  0  0  0
  2 18  1  0  0  0  0
  3  5  1  0  0  0  0
  3  6  1  0  0  0  0
  3  7  1  0  0  0  0
  4  8  1  0  0  0  0
  4  9  1  0  0  0  0
  4 19  1  0  0  0  0
  5  9  1  0  0  0  0
  5 20  1  0  0  0  0
  5 21  1  0  0  0  0
  6 22  1  0  0  0  0
  6 23  1  0  0  0  0
  6 24  1  0  0  0  0
  7 25  1  0  0  0  0
  7 26  1  0  0  0  0
  7 27  1  0  0  0  0
  8 10  2  0  0  0  0
  8 11  1  0  0  0  0
  9 12  1  0  0  0  0
  9 28  1  0  0  0  0
 10 13  1  0  0  0  0
 10 14  1  0  0  0  0
 11 29  1  0  0  0  0
 11 30  1  0  0  0  0
 11 31  1  0  0  0  0
 12 13  1  0  0  0  0
 12 32  1  0  0  0  0
 12 33  1  0  0  0  0
 13 15  1  0  0  0  0
 13 16  1  0  0  0  0
 14 15  1  0  0  0  0
 14 34  1  0  0  0  0
 14 35  1  0  0  0  0
 15 36  1  0  0  0  0
 15 37  1  0  0  0  0
 16 38  1  0  0  0  0
 16 39  1  0  0  0  0
 16 40  1  0  0  0  0
M  END
>  <Code-name>
042

>  <Compound>
1-hidroxi-3-sterpureno

>  <Specie>
Gloephyllum

>  <Reference>
RASSER; ANKE;
STERNER, 2000

>  <Organism>
Antitumoral Activity

>  <Smiles>
C[C@](CC1)(C[C@H]2CC3(C)C)C1=C(C)[C@@H]2[C@@H]3O

>  <MMFF94 Energy>
68.835

>  <Total Molweight>
220.355

>  <Molweight>
220.355

>  <Monoisotopic Mass>
220.182715

>  <cLogP>
3.3007

>  <cLogS>
-3.207

>  <H-Acceptors>
1

>  <H-Donors>
1

>  <Total Surface Area>
164.67

>  <Relative PSA>
0.079553

>  <Polar Surface Area>
20.23

>  <Druglikeness>
-2.0695

>  <Mutagenic>
none

>  <Tumorigenic>
none

>  <Reproductive Effective>
none

>  <Irritant>
none

>  <Nasty Functions>


>  <Shape Index>
0.4375

>  <Molecular Flexibility>
0.095582

>  <Molecular Complexity>
0.85521

>  <Fragments>
1

>  <Non-H Atoms>
16

>  <Non-C/H Atoms>
1

>  <Metal-Atoms>
0

>  <Electronegative Atoms>
1

>  <Stereo Centers>
4

>  <Rotatable Bonds>
0

>  <Rings Closures>
3

>  <Small Rings>
3

>  <Aromatic Rings>
0

>  <Aromatic Atoms>
0

>  <sp3-Atoms>
14

>  <Symmetric atoms>
1

>  <Amides>
0

>  <Amines>
0

>  <Alkyl-Amines>
0

>  <Aromatic Amines>
0

>  <Aromatic Nitrogens>
0

>  <Basic Nitrogens>
0

>  <Acidic Oxygens>
0

>  <Stereo Configuration>
this enantiomer

> <Gold.Version>
5.8.1

> <Gold.Id.Protein>
ID_2|Prot_COX2_5IKQ_Alig|mol2

> <Gold.Goldscore.Fitness>
41.1754

> <Gold.Goldscore.Internal.Vdw>
-3.2350

> <Gold.Goldscore.Internal.Torsion>
-1.0961

> <Gold.Goldscore.External.Vdw>
29.9961

> <Gold.Goldscore.Internal.HBond>
0.0000

> <Gold.Goldscore.External.HBond>
0.0000

> <Gold.Goldscore.Internal.Correction>
-4.2619

> <Gold.Goldscore.Internal.Vdw.Weighted>
-3.2350

> <Gold.Goldscore.Internal.Torsion.Weighted>
-1.0961

> <Gold.Goldscore.External.Vdw.Weighted>
41.2446

> <Gold.Goldscore.Internal.HBond.Weighted>
0.0000

> <Gold.Goldscore.External.HBond.Weighted>
0.0000

> <Gold.Goldscore.Internal.Correction.Weighted>
-4.2619

> <Gold.Protein.RotatedTorsions>
[ 5077 5068 5067 5065 ] final   65.45 input  179.94 | X-H torsion
[ 5157 5152 5151 5148 ] final -159.83 input -179.92 | X-H torsion
[ 5185 5176 5175 5173 ] final -116.65 input -179.99 | X-H torsion
[ 5712 5703 5702 5700 ] final  148.64 input  180.00 | X-H torsion
[ 8036 8031 8030 8027 ] final -164.73 input -179.94 | X-H torsion
[ 2749 2745 2743 2740 ] final  -41.10 input  -60.05 | X-H torsion
[ 1366 1361 1360 1357 ] final  -40.78 input  -60.09 | X-H torsion
[ 2556 2551 2550 2547 ] final   87.36 input   59.97 | X-H torsion

> <Gold.Protein.ActiveResidues>
 PRO86   VAL89   HIS90   LEU93   THR94   ILE112  MET113  TYR115  VAL116  LEU117 
 THR118  SER119  ARG120  SER121  LEU123  ILE124  GLN192  SER194  PHE198  PHE201 
 ALA202  GLN203  PHE205  THR206  PHE209  PHE210  VAL228  ILE341  ILE343  VAL344 
 ILE345  GLU346  ASP347  TYR348  VAL349  GLN350  HIS351  LEU352  SER353  GLY354 
 TYR355  PHE357  LEU359  LYS360  GLU380  PHE381  ASN382  THR383  LEU384  TYR385 
 HIS386  TRP387  LEU390  VAL434  LEU507  ARG513  ALA516  ILE517  PHE518  GLY519 
 GLU520  THR521  MET522  VAL523  GLU524  VAL525  GLY526  ALA527  PRO528  PHE529 
 SER530  LEU531  LYS532  GLY533  LEU534  MET535  COH609 

> <Gold.Protein.RotatedAtoms>
   17.7521    7.7747    2.8908 H   0  0  0  0  0  0  0  0  0  0  0  0  # atno 1366 bound_to 1361
    5.0951  -10.1493    7.0568 H   0  0  0  0  0  0  0  0  0  0  0  0  # atno 2556 bound_to 2551
   -3.7775   -0.0491    1.3170 H   0  0  0  0  0  0  0  0  0  0  0  0  # atno 2749 bound_to 2745
    0.6829   -1.7796    4.0778 H   0  0  0  0  0  0  0  0  0  0  0  0  # atno 5077 bound_to 5068
   12.1251   -1.3292    9.2416 H   0  0  0  0  0  0  0  0  0  0  0  0  # atno 5157 bound_to 5152
   16.3879    0.1465    5.0993 H   0  0  0  0  0  0  0  0  0  0  0  0  # atno 5185 bound_to 5176
    2.9877   -0.0304    2.3584 H   0  0  0  0  0  0  0  0  0  0  0  0  # atno 5712 bound_to 5703
    5.9497    3.8373    3.6104 H   0  0  0  0  0  0  0  0  0  0  0  0  # atno 8036 bound_to 8031
    1.5792   -2.9798    4.2103 LP  0  0  0  0  0  0  0  0  0  0  0  0  # atno 8267 bound_to 5068
    2.0875   -1.5579    3.5887 LP  0  0  0  0  0  0  0  0  0  0  0  0  # atno 8268 bound_to 5068
   12.9791   -2.5677    9.1985 LP  0  0  0  0  0  0  0  0  0  0  0  0  # atno 8279 bound_to 5152
   11.3527   -2.6174    9.3360 LP  0  0  0  0  0  0  0  0  0  0  0  0  # atno 8280 bound_to 5152
   14.9297   -0.0587    4.7994 LP  0  0  0  0  0  0  0  0  0  0  0  0  # atno 8281 bound_to 5176
   16.0480   -1.2336    4.6112 LP  0  0  0  0  0  0  0  0  0  0  0  0  # atno 8282 bound_to 5176
    2.2107   -1.2400    2.7964 LP  0  0  0  0  0  0  0  0  0  0  0  0  # atno 8283 bound_to 5703
    1.5749    0.2640    2.7779 LP  0  0  0  0  0  0  0  0  0  0  0  0  # atno 8284 bound_to 5703
    4.6116    4.3778    3.1894 LP  0  0  0  0  0  0  0  0  0  0  0  0  # atno 8309 bound_to 8031
    5.8619    5.3380    3.6152 LP  0  0  0  0  0  0  0  0  0  0  0  0  # atno 8310 bound_to 8031
   -2.6999   -0.6082    0.4285 LP  0  0  0  0  0  0  0  0  0  0  0  0  # atno 8323 bound_to 2745
   -3.9869    0.2142   -0.1494 LP  0  0  0  0  0  0  0  0  0  0  0  0  # atno 8324 bound_to 2745
   18.8566    6.8138    3.2384 LP  0  0  0  0  0  0  0  0  0  0  0  0  # atno 8335 bound_to 1361
   18.1054    6.8134    1.7885 LP  0  0  0  0  0  0  0  0  0  0  0  0  # atno 8336 bound_to 1361
    4.9604   -9.3007    8.2921 LP  0  0  0  0  0  0  0  0  0  0  0  0  # atno 8342 bound_to 2551
    4.4747   -8.7998    6.8157 LP  0  0  0  0  0  0  0  0  0  0  0  0  # atno 8343 bound_to 2551

