
044|LMW3_p|sdf|44|dock6
  -GOLD-   6 722 5123D 1   1.00000     0.00000

 39 42  0  0  0  0  0  0  0  0  1 V2000
   14.7853   -3.2715    3.4924 O   0  0  0  0  0  0  0  0  0  0  0  0
   13.7194   -2.7057    3.6583 C   0  0  0  0  0  0  0  0  0  0  0  0
   13.4924   -1.3789    3.4770 O   0  0  0  0  0  0  0  0  0  0  0  0
   12.4660   -3.3697    4.0392 C   0  0  0  0  0  0  0  0  0  0  0  0
   12.1738   -1.0671    3.9287 C   0  0  2  0  0  0  0  0  0  0  0  0
   11.5564   -2.3985    4.1560 C   0  0  0  0  0  0  0  0  0  0  0  0
   12.4408   -4.8474    4.1364 C   0  0  0  0  0  0  0  0  0  0  0  0
   11.4152   -0.2132    2.9456 C   0  0  1  0  0  0  0  0  0  0  0  0
   12.2744   -0.1758    5.1865 C   0  0  0  0  0  0  0  0  0  0  0  0
   10.0683   -2.5107    4.2676 C   0  0  0  0  0  0  0  0  0  0  0  0
   12.8714   -5.4488    2.9221 O   0  0  0  0  0  0  0  0  0  0  0  0
   12.1716    0.7293    2.1872 O   0  0  0  0  0  0  0  0  0  0  0  0
   10.1625   -0.7905    2.3403 C   0  0  1  0  0  0  0  0  0  0  0  0
   11.5308    1.2254    3.3723 C   0  0  2  0  0  0  0  0  0  0  0  0
   12.3445    1.2852    4.6490 C   0  0  0  0  0  0  0  0  0  0  0  0
    9.3234   -1.4087    3.4828 C   0  0  0  0  0  0  0  0  0  0  0  0
    9.3218    0.2036    1.5420 C   0  0  0  0  0  0  0  0  0  0  0  0
   11.7009    2.2434    5.6597 C   0  0  0  0  0  0  0  0  0  0  0  0
   13.7865    1.7372    4.3847 C   0  0  0  0  0  0  0  0  0  0  0  0
   11.4419   -5.1664    4.3491 H   0  0  0  0  0  0  0  0  0  0  0  0
   13.1065   -5.1474    4.9185 H   0  0  0  0  0  0  0  0  0  0  0  0
   13.1560   -0.4129    5.7445 H   0  0  0  0  0  0  0  0  0  0  0  0
   11.4436   -0.3196    5.8454 H   0  0  0  0  0  0  0  0  0  0  0  0
    9.7967   -2.4380    5.3000 H   0  0  0  0  0  0  0  0  0  0  0  0
    9.7843   -3.4528    3.8472 H   0  0  0  0  0  0  0  0  0  0  0  0
   12.8358   -6.4142    3.0090 H   0  0  0  0  0  0  0  0  0  0  0  0
   10.4655   -1.5256    1.6243 H   0  0  0  0  0  0  0  0  0  0  0  0
   10.9155    2.0820    3.5531 H   0  0  0  0  0  0  0  0  0  0  0  0
    9.0546   -0.6296    4.1653 H   0  0  0  0  0  0  0  0  0  0  0  0
    8.4677   -1.8668    3.0324 H   0  0  0  0  0  0  0  0  0  0  0  0
    8.4236   -0.2743    1.2105 H   0  0  0  0  0  0  0  0  0  0  0  0
    9.8795    0.5421    0.6938 H   0  0  0  0  0  0  0  0  0  0  0  0
    9.0732    1.0393    2.1621 H   0  0  0  0  0  0  0  0  0  0  0  0
   10.6691    1.9892    5.7851 H   0  0  0  0  0  0  0  0  0  0  0  0
   11.7795    3.2478    5.2991 H   0  0  0  0  0  0  0  0  0  0  0  0
   12.2052    2.1616    6.5999 H   0  0  0  0  0  0  0  0  0  0  0  0
   14.2553    1.0555    3.7062 H   0  0  0  0  0  0  0  0  0  0  0  0
   14.3299    1.7532    5.3065 H   0  0  0  0  0  0  0  0  0  0  0  0
   13.7802    2.7181    3.9573 H   0  0  0  0  0  0  0  0  0  0  0  0
  1  2  2  0  0  0  0
  2  3  1  0  0  0  0
  2  4  1  0  0  0  0
  4  6  2  0  0  0  0
  4  7  1  0  0  0  0
  5  3  1  0  0  0  0
  5  8  1  0  0  0  0
  5  9  1  0  0  0  0
  5  6  1  0  0  0  0
  6 10  1  0  0  0  0
  7 11  1  0  0  0  0
  7 20  1  0  0  0  0
  7 21  1  0  0  0  0
  8 12  1  0  0  0  0
  8 13  1  0  0  0  0
  8 14  1  0  0  0  0
  9 15  1  0  0  0  0
  9 22  1  0  0  0  0
  9 23  1  0  0  0  0
 10 16  1  0  0  0  0
 10 24  1  0  0  0  0
 10 25  1  0  0  0  0
 11 26  1  0  0  0  0
 12 14  1  0  0  0  0
 13 17  1  0  0  0  0
 13 16  1  0  0  0  0
 13 27  1  0  0  0  0
 14 15  1  0  0  0  0
 14 28  1  0  0  0  0
 15 18  1  0  0  0  0
 15 19  1  0  0  0  0
 16 29  1  0  0  0  0
 16 30  1  0  0  0  0
 17 31  1  0  0  0  0
 17 32  1  0  0  0  0
 17 33  1  0  0  0  0
 18 34  1  0  0  0  0
 18 35  1  0  0  0  0
 18 36  1  0  0  0  0
 19 37  1  0  0  0  0
 19 38  1  0  0  0  0
 19 39  1  0  0  0  0
M  END
>  <Code-name>
044

>  <Compound>
Aliacol B

>  <Specie>
Marasmius alliaceus

>  <Reference>
COTA et al, 2009

>  <Organism>
N/A

>  <Smiles>
C[C@H](CCC1=C2CO)[C@]34O[C@@H]4C(C)(C)C[C@@]13OC2=O

>  <MMFF94 Energy>
24.286

>  <Total Molweight>
264.320

>  <Molweight>
264.320

>  <Monoisotopic Mass>
264.136160

>  <cLogP>
0.7387

>  <cLogS>
-2.244

>  <H-Acceptors>
4

>  <H-Donors>
1

>  <Total Surface Area>
182.22

>  <Relative PSA>
0.29519

>  <Polar Surface Area>
59.06

>  <Druglikeness>
-1.1696

>  <Mutagenic>
none

>  <Tumorigenic>
high

>  <Reproductive Effective>
none

>  <Irritant>
high

>  <Nasty Functions>
oxiran/aziridine

>  <Shape Index>
0.42105

>  <Molecular Flexibility>
0.19047

>  <Molecular Complexity>
1.0015

>  <Fragments>
1

>  <Non-H Atoms>
19

>  <Non-C/H Atoms>
4

>  <Metal-Atoms>
0

>  <Electronegative Atoms>
4

>  <Stereo Centers>
4

>  <Rotatable Bonds>
1

>  <Rings Closures>
4

>  <Small Rings>
5

>  <Aromatic Rings>
0

>  <Aromatic Atoms>
0

>  <sp3-Atoms>
15

>  <Symmetric atoms>
1

>  <Amides>
0

>  <Amines>
0

>  <Alkyl-Amines>
0

>  <Aromatic Amines>
0

>  <Aromatic Nitrogens>
0

>  <Basic Nitrogens>
0

>  <Acidic Oxygens>
0

>  <Stereo Configuration>
this enantiomer

> <Gold.Version>
5.8.1

> <Gold.Id.Protein>
ID_2|Prot_COX2_5IKQ_Alig|mol2

> <Gold.Goldscore.Fitness>
42.6891

> <Gold.Goldscore.Internal.Vdw>
-2.9782

> <Gold.Goldscore.Internal.Torsion>
-0.8062

> <Gold.Goldscore.External.Vdw>
30.0378

> <Gold.Goldscore.Internal.HBond>
0.0000

> <Gold.Goldscore.External.HBond>
2.0000

> <Gold.Goldscore.Internal.Correction>
-3.1716

> <Gold.Goldscore.Hbonds>
donor molecule, donor type, donor heavy atom, donor atom, acceptor molecule, acceptor atom, score
      P1  H  5176  5185       L1     3  1.00

> <Gold.Goldscore.Internal.Vdw.Weighted>
-2.9782

> <Gold.Goldscore.Internal.Torsion.Weighted>
-0.8062

> <Gold.Goldscore.External.Vdw.Weighted>
41.3019

> <Gold.Goldscore.Internal.HBond.Weighted>
0.0000

> <Gold.Goldscore.External.HBond.Weighted>
2.0000

> <Gold.Goldscore.Internal.Correction.Weighted>
-3.1716

> <Gold.Protein.RotatedTorsions>
[ 5077 5068 5067 5065 ] final  -11.03 input  179.94 | X-H torsion
[ 5157 5152 5151 5148 ] final -120.98 input -179.92 | X-H torsion
[ 5185 5176 5175 5173 ] final   70.64 input -179.99 | X-H torsion
[ 5712 5703 5702 5700 ] final  112.01 input  180.00 | X-H torsion
[ 8036 8031 8030 8027 ] final -105.78 input -179.94 | X-H torsion
[ 2749 2745 2743 2740 ] final  119.25 input  -60.05 | X-H torsion
[ 1366 1361 1360 1357 ] final   75.41 input  -60.09 | X-H torsion
[ 2556 2551 2550 2547 ] final    5.60 input   59.97 | X-H torsion

> <Gold.Protein.ActiveResidues>
 PRO86   VAL89   HIS90   LEU93   THR94   ILE112  MET113  TYR115  VAL116  LEU117 
 THR118  SER119  ARG120  SER121  LEU123  ILE124  GLN192  SER194  PHE198  PHE201 
 ALA202  GLN203  PHE205  THR206  PHE209  PHE210  VAL228  ILE341  ILE343  VAL344 
 ILE345  GLU346  ASP347  TYR348  VAL349  GLN350  HIS351  LEU352  SER353  GLY354 
 TYR355  PHE357  LEU359  LYS360  GLU380  PHE381  ASN382  THR383  LEU384  TYR385 
 HIS386  TRP387  LEU390  VAL434  LEU507  ARG513  ALA516  ILE517  PHE518  GLY519 
 GLU520  THR521  MET522  VAL523  GLU524  VAL525  GLY526  ALA527  PRO528  PHE529 
 SER530  LEU531  LYS532  GLY533  LEU534  MET535  COH609 

> <Gold.Protein.RotatedAtoms>
   18.1098    6.9351    1.9070 H   0  0  0  0  0  0  0  0  0  0  0  0  # atno 1366 bound_to 1361
    5.1040   -9.8100    8.0341 H   0  0  0  0  0  0  0  0  0  0  0  0  # atno 2556 bound_to 2551
   -3.4334   -0.0499   -0.2011 H   0  0  0  0  0  0  0  0  0  0  0  0  # atno 2749 bound_to 2745
    1.0006   -2.6753    4.3048 H   0  0  0  0  0  0  0  0  0  0  0  0  # atno 5077 bound_to 5068
   11.6362   -1.5191    9.2808 H   0  0  0  0  0  0  0  0  0  0  0  0  # atno 5157 bound_to 5152
   15.1935   -0.7831    4.6722 H   0  0  0  0  0  0  0  0  0  0  0  0  # atno 5185 bound_to 5176
    3.0341   -0.5206    2.4114 H   0  0  0  0  0  0  0  0  0  0  0  0  # atno 5712 bound_to 5703
    6.2554    4.5434    3.7110 H   0  0  0  0  0  0  0  0  0  0  0  0  # atno 8036 bound_to 8031
    2.3143   -2.1973    3.7507 LP  0  0  0  0  0  0  0  0  0  0  0  0  # atno 8267 bound_to 5068
    0.9720   -1.2677    3.7765 LP  0  0  0  0  0  0  0  0  0  0  0  0  # atno 8268 bound_to 5068
   13.0765   -1.9476    9.1977 LP  0  0  0  0  0  0  0  0  0  0  0  0  # atno 8279 bound_to 5152
   11.8400   -3.0103    9.2899 LP  0  0  0  0  0  0  0  0  0  0  0  0  # atno 8280 bound_to 5152
   16.6863   -0.7369    4.8394 LP  0  0  0  0  0  0  0  0  0  0  0  0  # atno 8281 bound_to 5176
   15.7256    0.5608    5.0839 LP  0  0  0  0  0  0  0  0  0  0  0  0  # atno 8282 bound_to 5176
    1.6923   -0.9763    2.9120 LP  0  0  0  0  0  0  0  0  0  0  0  0  # atno 8283 bound_to 5703
    2.0376    0.5887    2.5987 LP  0  0  0  0  0  0  0  0  0  0  0  0  # atno 8284 bound_to 5703
    5.1183    3.6210    3.3705 LP  0  0  0  0  0  0  0  0  0  0  0  0  # atno 8309 bound_to 8031
    4.9883    5.2478    3.3134 LP  0  0  0  0  0  0  0  0  0  0  0  0  # atno 8310 bound_to 8031
   -4.2546    0.2148    1.0314 LP  0  0  0  0  0  0  0  0  0  0  0  0  # atno 8323 bound_to 2745
   -2.8444   -0.6079    1.0659 LP  0  0  0  0  0  0  0  0  0  0  0  0  # atno 8324 bound_to 2745
   17.6614    7.8555    3.0097 LP  0  0  0  0  0  0  0  0  0  0  0  0  # atno 8335 bound_to 1361
   18.8727    6.7760    3.1941 LP  0  0  0  0  0  0  0  0  0  0  0  0  # atno 8336 bound_to 1361
    4.4799   -8.5979    7.3974 LP  0  0  0  0  0  0  0  0  0  0  0  0  # atno 8342 bound_to 2551
    4.9446   -9.9085    6.5412 LP  0  0  0  0  0  0  0  0  0  0  0  0  # atno 8343 bound_to 2551

