
045|LMW3_p|sdf|45|dock2
  -GOLD-   6 722 5123D 1   1.00000     0.00000

 73 79  0  0  0  0  0  0  0  0  3 V2000
   10.0430   -2.3132    0.4486 O   0  0  0  0  0  0  0  0  0  0  0  0
    9.3404   -1.7499    1.2947 C   0  0  0  0  0  0  0  0  0  0  0  0
    8.0668   -1.1003    0.8737 C   0  0  0  0  0  0  0  0  0  0  0  0
    9.7328   -1.7210    2.7861 C   0  0  2  0  0  0  0  0  0  0  0  0
    7.9573   -0.7154   -0.4167 C   0  0  0  0  0  0  0  0  0  0  0  0
    6.9819   -1.0295    1.9341 C   0  0  1  0  0  0  0  0  0  0  0  0
   11.1326   -1.4282    2.8306 O   0  0  0  0  0  0  0  0  0  0  0  0
    9.5395   -3.0000    3.3544 O   0  0  0  0  0  0  0  0  0  0  0  0
    9.0136   -0.6648    3.6406 C   0  0  2  0  0  0  0  0  0  0  0  0
    8.9744   -0.8582   -1.3503 O   0  5  0  0  0  0  0  0  0  0  0  0
    6.6860   -0.1052   -0.9271 C   0  0  0  0  0  0  0  0  0  0  0  0
    7.5225   -0.4133    3.2825 C   0  0  2  0  0  0  0  0  0  0  0  0
    5.7524   -0.2143    1.5043 C   0  0  2  0  0  0  0  0  0  0  0  0
    6.4739   -2.4944    2.1068 C   0  0  0  0  0  0  0  0  0  0  0  0
   11.3228   -0.2356    3.5484 C   0  0  1  0  0  0  0  0  0  0  0  0
    9.9859    0.5209    3.4863 C   0  0  2  0  0  0  0  0  0  0  0  0
    6.5127    0.1856   -2.1030 O   0  0  0  0  0  0  0  0  0  0  0  0
    5.5931    0.1246    0.0461 C   0  0  1  0  0  0  0  0  0  0  0  0
    6.6417   -0.8032    4.4894 C   0  0  0  0  0  0  0  0  0  0  0  0
    5.6921    1.2550    1.0622 C   0  0  0  0  0  0  0  0  0  0  0  0
   11.6147   -0.6218    4.8855 O   0  0  0  0  0  0  0  0  0  0  0  0
   12.4271    0.7268    3.0794 C   0  0  0  0  0  0  0  0  0  0  0  0
   10.0179    1.6962    4.5079 C   0  0  1  0  0  0  0  0  0  0  0  0
    4.4119    2.0059    1.3611 C   0  0  0  0  0  0  0  0  0  0  0  0
    6.8933    2.1679    1.0219 C   0  0  0  0  0  0  0  0  0  0  0  0
   13.2513    0.4652    2.2052 O   0  0  0  0  0  0  0  0  0  0  0  0
   12.5160    2.0087    3.8421 C   0  0  0  0  0  0  0  0  0  0  0  0
   11.1950    2.7150    4.1526 C   0  0  2  0  0  0  0  0  0  0  0  0
    8.6650    2.3985    4.6638 C   0  0  0  0  0  0  0  0  0  0  0  0
   13.7491    2.3995    4.2209 C   0  0  0  0  0  0  0  0  0  0  0  0
   11.3179    3.7576    5.2644 C   0  0  1  0  0  0  0  0  0  0  0  0
   10.8606    3.5040    2.8489 C   0  0  0  0  0  0  0  0  0  0  0  0
   14.9093    1.7375    3.8431 O   0  5  0  0  0  0  0  0  0  0  0  0
   13.9177    3.5846    5.1230 C   0  0  0  0  0  0  0  0  0  0  0  0
   11.8061    3.5353    6.6953 C   0  0  0  0  0  0  0  0  0  0  0  0
   12.6947    4.2281    5.6644 C   0  0  2  0  0  0  0  0  0  0  0  0
   15.0145    4.0464    5.4098 O   0  0  0  0  0  0  0  0  0  0  0  0
   12.1797    2.1749    7.2308 C   0  0  0  0  0  0  0  0  0  0  0  0
   11.1971    4.4184    7.7643 C   0  0  0  0  0  0  0  0  0  0  0  0
   10.1090   -3.6433    2.9042 H   0  0  0  0  0  0  0  0  0  0  0  0
    8.8535   -0.9456    4.6606 H   0  0  0  0  0  0  0  0  0  0  0  0
    7.4618    0.6351    3.0774 H   0  0  0  0  0  0  0  0  0  0  0  0
    5.2310   -0.7327    2.2816 H   0  0  0  0  0  0  0  0  0  0  0  0
    5.7999   -2.5426    2.9364 H   0  0  0  0  0  0  0  0  0  0  0  0
    7.3067   -3.1419    2.2858 H   0  0  0  0  0  0  0  0  0  0  0  0
    5.9668   -2.8034    1.2167 H   0  0  0  0  0  0  0  0  0  0  0  0
    9.7026    1.0749    2.6159 H   0  0  0  0  0  0  0  0  0  0  0  0
    4.8905   -0.1553   -0.7107 H   0  0  0  0  0  0  0  0  0  0  0  0
    6.7957   -1.8357    4.7244 H   0  0  0  0  0  0  0  0  0  0  0  0
    5.6122   -0.6425    4.2462 H   0  0  0  0  0  0  0  0  0  0  0  0
    6.9069   -0.2017    5.3336 H   0  0  0  0  0  0  0  0  0  0  0  0
   12.4538   -1.1080    4.9058 H   0  0  0  0  0  0  0  0  0  0  0  0
   10.2236    1.2732    5.4690 H   0  0  0  0  0  0  0  0  0  0  0  0
    4.5165    2.5357    2.2847 H   0  0  0  0  0  0  0  0  0  0  0  0
    3.6010    1.3120    1.4378 H   0  0  0  0  0  0  0  0  0  0  0  0
    4.2133    2.7007    0.5719 H   0  0  0  0  0  0  0  0  0  0  0  0
    7.0856    2.5477    2.0036 H   0  0  0  0  0  0  0  0  0  0  0  0
    6.7000    2.9825    0.3557 H   0  0  0  0  0  0  0  0  0  0  0  0
    7.7460    1.6205    0.6781 H   0  0  0  0  0  0  0  0  0  0  0  0
    8.7479    3.1735    5.3968 H   0  0  0  0  0  0  0  0  0  0  0  0
    7.9286    1.6884    4.9773 H   0  0  0  0  0  0  0  0  0  0  0  0
    8.3739    2.8240    3.7262 H   0  0  0  0  0  0  0  0  0  0  0  0
   10.4038    4.1669    4.8879 H   0  0  0  0  0  0  0  0  0  0  0  0
    9.8708    3.9046    2.9185 H   0  0  0  0  0  0  0  0  0  0  0  0
   10.9203    2.8451    2.0080 H   0  0  0  0  0  0  0  0  0  0  0  0
   11.5612    4.3034    2.7261 H   0  0  0  0  0  0  0  0  0  0  0  0
   13.2166    5.1615    5.6292 H   0  0  0  0  0  0  0  0  0  0  0  0
   11.3220    1.7213    7.6818 H   0  0  0  0  0  0  0  0  0  0  0  0
   12.9539    2.2797    7.9620 H   0  0  0  0  0  0  0  0  0  0  0  0
   12.5283    1.5590    6.4282 H   0  0  0  0  0  0  0  0  0  0  0  0
   10.5007    3.8488    8.3435 H   0  0  0  0  0  0  0  0  0  0  0  0
   10.6894    5.2393    7.3023 H   0  0  0  0  0  0  0  0  0  0  0  0
   11.9709    4.7913    8.4024 H   0  0  0  0  0  0  0  0  0  0  0  0
  1  2  2  0  0  0  0
  2  3  1  0  0  0  0
  2  4  1  0  0  0  0
  3  5  2  0  0  0  0
  3  6  1  0  0  0  0
  4  7  1  0  0  0  0
  4  8  1  0  0  0  0
  4  9  1  0  0  0  0
  5 10  1  0  0  0  0
  5 11  1  0  0  0  0
  6 12  1  0  0  0  0
  6 13  1  0  0  0  0
  6 14  1  0  0  0  0
  7 15  1  0  0  0  0
  8 40  1  0  0  0  0
  9 16  1  0  0  0  0
  9 12  1  0  0  0  0
  9 41  1  0  0  0  0
 11 17  2  0  0  0  0
 11 18  1  0  0  0  0
 12 19  1  0  0  0  0
 12 42  1  0  0  0  0
 13 20  1  0  0  0  0
 13 18  1  0  0  0  0
 13 43  1  0  0  0  0
 14 44  1  0  0  0  0
 14 45  1  0  0  0  0
 14 46  1  0  0  0  0
 15 21  1  0  0  0  0
 15 22  1  0  0  0  0
 15 16  1  0  0  0  0
 16 23  1  0  0  0  0
 16 47  1  0  0  0  0
 18 20  1  0  0  0  0
 18 48  1  0  0  0  0
 19 49  1  0  0  0  0
 19 50  1  0  0  0  0
 19 51  1  0  0  0  0
 20 24  1  0  0  0  0
 20 25  1  0  0  0  0
 21 52  1  0  0  0  0
 22 26  2  0  0  0  0
 22 27  1  0  0  0  0
 23 28  1  0  0  0  0
 23 29  1  0  0  0  0
 23 53  1  0  0  0  0
 24 54  1  0  0  0  0
 24 55  1  0  0  0  0
 24 56  1  0  0  0  0
 25 57  1  0  0  0  0
 25 58  1  0  0  0  0
 25 59  1  0  0  0  0
 27 30  2  0  0  0  0
 27 28  1  0  0  0  0
 28 31  1  0  0  0  0
 28 32  1  0  0  0  0
 29 60  1  0  0  0  0
 29 61  1  0  0  0  0
 29 62  1  0  0  0  0
 30 33  1  0  0  0  0
 30 34  1  0  0  0  0
 31 35  1  0  0  0  0
 31 36  1  0  0  0  0
 31 63  1  0  0  0  0
 32 64  1  0  0  0  0
 32 65  1  0  0  0  0
 32 66  1  0  0  0  0
 34 37  2  0  0  0  0
 34 36  1  0  0  0  0
 35 38  1  0  0  0  0
 35 39  1  0  0  0  0
 35 36  1  0  0  0  0
 36 67  1  0  0  0  0
 38 68  1  0  0  0  0
 38 69  1  0  0  0  0
 38 70  1  0  0  0  0
 39 71  1  0  0  0  0
 39 72  1  0  0  0  0
 39 73  1  0  0  0  0
M  CHG  1  10  -1
M  CHG  1  33  -1
M  END
>  <Code-name>
045

>  <Compound>
Aurisina A

>  <Specie>
Neonothopanus nambi

>  <Reference>
KANOKMEDHAKUL et al., 2012

>  <Organism>
Antitumoral Activity

>  <Smiles>
C[C@@H]([C@H]([C@H]1[C@H](C)[C@@](C)([C@H]2C(C)(C)[C@H]2C2=O)C(C3=O)=C2O)[C@](C2=O)(O)O[C@]13O)[C@@](C)([C@H]1C(C)(C)[C@H]1C1=O)C2=C1O

>  <MMFF94 Energy>
238.39

>  <Total Molweight>
540.607

>  <Molweight>
540.607

>  <Monoisotopic Mass>
540.235935

>  <cLogP>
1.7204

>  <cLogS>
-4.139

>  <H-Acceptors>
9

>  <H-Donors>
4

>  <Total Surface Area>
331.78

>  <Relative PSA>
0.34529

>  <Polar Surface Area>
158.43

>  <Druglikeness>
-0.56383

>  <Mutagenic>
high

>  <Tumorigenic>
high

>  <Reproductive Effective>
high

>  <Irritant>
high

>  <Nasty Functions>


>  <Shape Index>
0.33333

>  <Molecular Flexibility>
0.17242

>  <Molecular Complexity>
1.1309

>  <Fragments>
1

>  <Non-H Atoms>
39

>  <Non-C/H Atoms>
9

>  <Metal-Atoms>
0

>  <Electronegative Atoms>
9

>  <Stereo Centers>
12

>  <Rotatable Bonds>
0

>  <Rings Closures>
7

>  <Small Rings>
9

>  <Aromatic Rings>
0

>  <Aromatic Atoms>
0

>  <sp3-Atoms>
27

>  <Symmetric atoms>
2

>  <Amides>
0

>  <Amines>
0

>  <Alkyl-Amines>
0

>  <Aromatic Amines>
0

>  <Aromatic Nitrogens>
0

>  <Basic Nitrogens>
0

>  <Acidic Oxygens>
0

>  <Stereo Configuration>
this enantiomer

> <Gold.Version>
5.8.1

> <Gold.Id.Protein>
ID_2|Prot_COX2_5IKQ_Alig|mol2

> <Gold.Goldscore.Fitness>
-145.2542

> <Gold.Goldscore.Internal.Vdw>
-30.7448

> <Gold.Goldscore.Internal.Torsion>
-3.8951

> <Gold.Goldscore.External.Vdw>
-107.1605

> <Gold.Goldscore.Internal.HBond>
0.0000

> <Gold.Goldscore.External.HBond>
4.0872

> <Gold.Goldscore.Internal.Correction>
-32.6442

> <Gold.Goldscore.Hbonds>
donor molecule, donor type, donor heavy atom, donor atom, acceptor molecule, acceptor atom, score
      P1  H  1374  1386       L1    37  0.22
      P1  H  1377  1389       L1    33  0.01
      P1  H  5176  5185       L1    33  0.44

> <Gold.Goldscore.Internal.Vdw.Weighted>
-30.7448

> <Gold.Goldscore.Internal.Torsion.Weighted>
-3.8951

> <Gold.Goldscore.External.Vdw.Weighted>
-147.3457

> <Gold.Goldscore.Internal.HBond.Weighted>
0.0000

> <Gold.Goldscore.External.HBond.Weighted>
4.0872

> <Gold.Goldscore.Internal.Correction.Weighted>
-32.6442

> <Gold.Protein.RotatedTorsions>
[ 5077 5068 5067 5065 ] final   58.77 input  179.94 | X-H torsion
[ 5157 5152 5151 5148 ] final  -74.74 input -179.92 | X-H torsion
[ 5185 5176 5175 5173 ] final  162.15 input -179.99 | X-H torsion
[ 5712 5703 5702 5700 ] final   72.08 input  180.00 | X-H torsion
[ 8036 8031 8030 8027 ] final -153.39 input -179.94 | X-H torsion
[ 2749 2745 2743 2740 ] final  160.76 input  -60.05 | X-H torsion
[ 1366 1361 1360 1357 ] final -163.40 input  -60.09 | X-H torsion
[ 2556 2551 2550 2547 ] final  114.03 input   59.97 | X-H torsion

> <Gold.Protein.ActiveResidues>
 PRO86   VAL89   HIS90   LEU93   THR94   ILE112  MET113  TYR115  VAL116  LEU117 
 THR118  SER119  ARG120  SER121  LEU123  ILE124  GLN192  SER194  PHE198  PHE201 
 ALA202  GLN203  PHE205  THR206  PHE209  PHE210  VAL228  ILE341  ILE343  VAL344 
 ILE345  GLU346  ASP347  TYR348  VAL349  GLN350  HIS351  LEU352  SER353  GLY354 
 TYR355  PHE357  LEU359  LYS360  GLU380  PHE381  ASN382  THR383  LEU384  TYR385 
 HIS386  TRP387  LEU390  VAL434  LEU507  ARG513  ALA516  ILE517  PHE518  GLY519 
 GLU520  THR521  MET522  VAL523  GLU524  VAL525  GLY526  ALA527  PRO528  PHE529 
 SER530  LEU531  LYS532  GLY533  LEU534  MET535  COH609 

> <Gold.Protein.RotatedAtoms>
   18.7886    6.8786    3.1038 H   0  0  0  0  0  0  0  0  0  0  0  0  # atno 1366 bound_to 1361
    4.9618   -9.9685    6.7696 H   0  0  0  0  0  0  0  0  0  0  0  0  # atno 2556 bound_to 2551
   -2.9962   -0.3308    0.0070 H   0  0  0  0  0  0  0  0  0  0  0  0  # atno 2749 bound_to 2745
    0.6592   -1.8615    4.1122 H   0  0  0  0  0  0  0  0  0  0  0  0  # atno 5077 bound_to 5068
   11.3617   -2.0758    9.2974 H   0  0  0  0  0  0  0  0  0  0  0  0  # atno 5157 bound_to 5152
   15.3758    0.2809    5.0025 H   0  0  0  0  0  0  0  0  0  0  0  0  # atno 5185 bound_to 5176
    2.7549   -0.9586    2.5524 H   0  0  0  0  0  0  0  0  0  0  0  0  # atno 5712 bound_to 5703
    6.0599    3.9410    3.6478 H   0  0  0  0  0  0  0  0  0  0  0  0  # atno 8036 bound_to 8031
    1.6825   -2.9616    4.1774 LP  0  0  0  0  0  0  0  0  0  0  0  0  # atno 8267 bound_to 5068
    2.0125   -1.4779    3.5805 LP  0  0  0  0  0  0  0  0  0  0  0  0  # atno 8268 bound_to 5068
   12.6682   -1.3309    9.2398 LP  0  0  0  0  0  0  0  0  0  0  0  0  # atno 8279 bound_to 5152
   12.5767   -2.9613    9.2279 LP  0  0  0  0  0  0  0  0  0  0  0  0  # atno 8280 bound_to 5152
   15.4321   -1.1519    4.5523 LP  0  0  0  0  0  0  0  0  0  0  0  0  # atno 8281 bound_to 5176
   16.7609   -0.3018    4.9745 LP  0  0  0  0  0  0  0  0  0  0  0  0  # atno 8282 bound_to 5176
    1.4090   -0.3975    2.9162 LP  0  0  0  0  0  0  0  0  0  0  0  0  # atno 8283 bound_to 5703
    2.6560    0.5356    2.4252 LP  0  0  0  0  0  0  0  0  0  0  0  0  # atno 8284 bound_to 5703
    4.6466    4.1950    3.2029 LP  0  0  0  0  0  0  0  0  0  0  0  0  # atno 8309 bound_to 8031
    5.6946    5.3964    3.5568 LP  0  0  0  0  0  0  0  0  0  0  0  0  # atno 8310 bound_to 8031
   -4.2988    0.3266    0.3735 LP  0  0  0  0  0  0  0  0  0  0  0  0  # atno 8323 bound_to 2745
   -3.3238   -0.3833    1.4745 LP  0  0  0  0  0  0  0  0  0  0  0  0  # atno 8324 bound_to 2745
   18.0715    6.8427    1.7815 LP  0  0  0  0  0  0  0  0  0  0  0  0  # atno 8335 bound_to 1361
   17.6505    7.8564    2.9906 LP  0  0  0  0  0  0  0  0  0  0  0  0  # atno 8336 bound_to 1361
    5.1355   -9.6956    8.2392 LP  0  0  0  0  0  0  0  0  0  0  0  0  # atno 8342 bound_to 2551
    4.4591   -8.6211    7.2122 LP  0  0  0  0  0  0  0  0  0  0  0  0  # atno 8343 bound_to 2551

