
048|LMW3_p|sdf|48|dock3
  -GOLD-   6 722 5163D 1   1.00000     0.00000

 82 86  0  0  0  0  0  0  0  0  1 V2000
    3.4256    2.5333    1.4702 O   0  0  0  0  0  0  0  0  0  0  0  0
    4.2954    1.7052    1.7161 C   0  0  0  0  0  0  0  0  0  0  0  0
    5.2084    1.3522    0.7962 O   0  0  0  0  0  0  0  0  0  0  0  0
    4.3236    1.0710    3.0337 C   0  0  0  0  0  0  0  0  0  0  0  0
    6.0832    0.1806    0.8438 C   0  0  0  0  0  0  0  0  0  0  0  0
    5.3925    0.6678    3.7293 C   0  0  0  0  0  0  0  0  0  0  0  0
    7.2384    0.4209    1.9029 C   0  0  2  0  0  0  0  0  0  0  0  0
    5.2607   -1.1142    1.0123 C   0  0  0  0  0  0  0  0  0  0  0  0
    6.6492    0.1413   -0.5994 C   0  0  0  0  0  0  0  0  0  0  0  0
    6.7913    0.7164    3.3450 C   0  0  0  0  0  0  0  0  0  0  0  0
    7.9348    1.6110    1.4553 O   0  0  0  0  0  0  0  0  0  0  0  0
    8.2676   -0.7514    1.8259 C   0  0  0  0  0  0  0  0  0  0  0  0
    7.6566    1.0643    4.3265 C   0  0  0  0  0  0  0  0  0  0  0  0
    9.2188   -0.9834    3.0100 C   0  0  0  0  0  0  0  0  0  0  0  0
    9.0971    1.2071    4.1836 C   0  0  0  0  0  0  0  0  0  0  0  0
    9.8519    0.2559    3.5868 C   0  0  0  0  0  0  0  0  0  0  0  0
    9.6679    2.4867    4.7728 C   0  0  0  0  0  0  0  0  0  0  0  0
   11.3525    0.4775    3.4181 C   0  0  1  0  0  0  0  0  0  0  0  0
   11.1926    2.6789    4.6319 C   0  0  0  0  0  0  0  0  0  0  0  0
   11.9305    1.3278    4.6276 C   0  0  2  0  0  0  0  0  0  0  0  0
   12.3307   -0.7241    3.3944 C   0  0  2  0  0  0  0  0  0  0  0  0
   11.4809    1.1735    2.0221 C   0  0  0  0  0  0  0  0  0  0  0  0
   13.4535    1.3526    4.2874 C   0  0  2  0  0  0  0  0  0  0  0  0
   11.7244    0.6625    6.0256 C   0  0  0  0  0  0  0  0  0  0  0  0
   11.9639   -1.7083    4.3794 O   0  0  0  0  0  0  0  0  0  0  0  0
   13.7014   -0.0957    3.7490 C   0  0  0  0  0  0  0  0  0  0  0  0
   14.4961    1.7535    5.3862 C   0  0  1  0  0  0  0  0  0  0  0  0
   12.3981   -2.9752    4.1459 C   0  0  0  0  0  0  0  0  0  0  0  0
   15.8573    2.1575    4.7320 C   0  0  1  0  0  0  0  0  0  0  0  0
   13.9502    2.8827    6.2734 C   0  0  0  0  0  0  0  0  0  0  0  0
   13.4204   -3.2793    3.5486 O   0  0  0  0  0  0  0  0  0  0  0  0
   11.4387   -3.9591    4.7413 C   0  0  0  0  0  0  0  0  0  0  0  0
   15.7805    3.5363    4.3014 O   0  0  0  0  0  0  0  0  0  0  0  0
   17.0897    1.8991    5.6254 C   0  0  2  0  0  0  0  0  0  0  0  0
   16.8876    4.1715    3.8445 C   0  0  0  0  0  0  0  0  0  0  0  0
   16.9711    2.4438    6.9281 O   0  0  0  0  0  0  0  0  0  0  0  0
   18.2942    2.5020    4.9840 C   0  0  0  0  0  0  0  0  0  0  0  0
   16.8146    5.2289    3.2308 O   0  0  0  0  0  0  0  0  0  0  0  0
   18.2023    3.5339    4.1286 C   0  0  0  0  0  0  0  0  0  0  0  0
   19.3914    4.1572    3.4657 C   0  0  0  0  0  0  0  0  0  0  0  0
    3.4068    0.9157    3.4814 H   0  0  0  0  0  0  0  0  0  0  0  0
    5.1971    0.2701    4.6612 H   0  0  0  0  0  0  0  0  0  0  0  0
    5.8351   -1.9490    0.6686 H   0  0  0  0  0  0  0  0  0  0  0  0
    4.3597   -1.0414    0.4398 H   0  0  0  0  0  0  0  0  0  0  0  0
    5.0170   -1.2501    2.0453 H   0  0  0  0  0  0  0  0  0  0  0  0
    7.2781   -0.7169   -0.7127 H   0  0  0  0  0  0  0  0  0  0  0  0
    7.2193    1.0280   -0.7832 H   0  0  0  0  0  0  0  0  0  0  0  0
    5.8408    0.0858   -1.2982 H   0  0  0  0  0  0  0  0  0  0  0  0
    7.3410    2.3755    1.5166 H   0  0  0  0  0  0  0  0  0  0  0  0
    8.8766   -0.5785    0.9632 H   0  0  0  0  0  0  0  0  0  0  0  0
    7.6569   -1.6298    1.8100 H   0  0  0  0  0  0  0  0  0  0  0  0
    7.2578    1.2445    5.2611 H   0  0  0  0  0  0  0  0  0  0  0  0
   10.0038   -1.6314    2.6801 H   0  0  0  0  0  0  0  0  0  0  0  0
    8.6177   -1.3972    3.7926 H   0  0  0  0  0  0  0  0  0  0  0  0
    9.4321    2.4996    5.8164 H   0  0  0  0  0  0  0  0  0  0  0  0
    9.2252    3.2833    4.2122 H   0  0  0  0  0  0  0  0  0  0  0  0
   11.5468    3.2666    5.4529 H   0  0  0  0  0  0  0  0  0  0  0  0
   11.3856    3.1713    3.7016 H   0  0  0  0  0  0  0  0  0  0  0  0
   12.3318   -1.2296    2.4513 H   0  0  0  0  0  0  0  0  0  0  0  0
   10.8875    2.0639    2.0116 H   0  0  0  0  0  0  0  0  0  0  0  0
   11.1378    0.5072    1.2585 H   0  0  0  0  0  0  0  0  0  0  0  0
   12.5051    1.4254    1.8420 H   0  0  0  0  0  0  0  0  0  0  0  0
   13.6327    2.1607    3.6093 H   0  0  0  0  0  0  0  0  0  0  0  0
   10.9840   -0.1062    5.9490 H   0  0  0  0  0  0  0  0  0  0  0  0
   11.4000    1.4015    6.7280 H   0  0  0  0  0  0  0  0  0  0  0  0
   12.6481    0.2362    6.3573 H   0  0  0  0  0  0  0  0  0  0  0  0
   14.3182   -0.0563    2.8756 H   0  0  0  0  0  0  0  0  0  0  0  0
   14.1963   -0.6856    4.4920 H   0  0  0  0  0  0  0  0  0  0  0  0
   14.6693    0.9028    6.0117 H   0  0  0  0  0  0  0  0  0  0  0  0
   16.0091    1.5199    3.8862 H   0  0  0  0  0  0  0  0  0  0  0  0
   13.5988    3.6830    5.6561 H   0  0  0  0  0  0  0  0  0  0  0  0
   14.7289    3.2414    6.9136 H   0  0  0  0  0  0  0  0  0  0  0  0
   13.1426    2.5101    6.8683 H   0  0  0  0  0  0  0  0  0  0  0  0
   11.0206   -4.5644    3.9643 H   0  0  0  0  0  0  0  0  0  0  0  0
   10.6547   -3.4328    5.2445 H   0  0  0  0  0  0  0  0  0  0  0  0
   11.9555   -4.5829    5.4403 H   0  0  0  0  0  0  0  0  0  0  0  0
   17.1726    0.8370    5.7245 H   0  0  0  0  0  0  0  0  0  0  0  0
   17.7956    2.2952    7.4169 H   0  0  0  0  0  0  0  0  0  0  0  0
   19.2253    2.1151    5.2037 H   0  0  0  0  0  0  0  0  0  0  0  0
   19.2189    4.2219    2.4117 H   0  0  0  0  0  0  0  0  0  0  0  0
   20.2576    3.5564    3.6490 H   0  0  0  0  0  0  0  0  0  0  0  0
   19.5474    5.1385    3.8626 H   0  0  0  0  0  0  0  0  0  0  0  0
  1  2  2  0  0  0  0
  2  3  1  0  0  0  0
  2  4  1  0  0  0  0
  3  5  1  0  0  0  0
  4  6  2  0  0  0  0
  4 41  1  0  0  0  0
  5  7  1  0  0  0  0
  5  8  1  0  0  0  0
  5  9  1  0  0  0  0
  6 10  1  0  0  0  0
  6 42  1  0  0  0  0
  7 11  1  0  0  0  0
  7 12  1  0  0  0  0
  7 10  1  0  0  0  0
  8 43  1  0  0  0  0
  8 44  1  0  0  0  0
  8 45  1  0  0  0  0
  9 46  1  0  0  0  0
  9 47  1  0  0  0  0
  9 48  1  0  0  0  0
 10 13  2  0  0  0  0
 11 49  1  0  0  0  0
 12 14  1  0  0  0  0
 12 50  1  0  0  0  0
 12 51  1  0  0  0  0
 13 15  1  0  0  0  0
 13 52  1  0  0  0  0
 14 16  1  0  0  0  0
 14 53  1  0  0  0  0
 14 54  1  0  0  0  0
 15 17  1  0  0  0  0
 15 16  2  0  0  0  0
 16 18  1  0  0  0  0
 17 19  1  0  0  0  0
 17 55  1  0  0  0  0
 17 56  1  0  0  0  0
 18 20  1  0  0  0  0
 18 21  1  0  0  0  0
 18 22  1  0  0  0  0
 19 20  1  0  0  0  0
 19 57  1  0  0  0  0
 19 58  1  0  0  0  0
 20 23  1  0  0  0  0
 20 24  1  0  0  0  0
 21 25  1  0  0  0  0
 21 26  1  0  0  0  0
 21 59  1  0  0  0  0
 22 60  1  0  0  0  0
 22 61  1  0  0  0  0
 22 62  1  0  0  0  0
 23 27  1  0  0  0  0
 23 26  1  0  0  0  0
 23 63  1  0  0  0  0
 24 64  1  0  0  0  0
 24 65  1  0  0  0  0
 24 66  1  0  0  0  0
 25 28  1  0  0  0  0
 26 67  1  0  0  0  0
 26 68  1  0  0  0  0
 27 29  1  0  0  0  0
 27 30  1  0  0  0  0
 27 69  1  0  0  0  0
 28 31  2  0  0  0  0
 28 32  1  0  0  0  0
 29 33  1  0  0  0  0
 29 34  1  0  0  0  0
 29 70  1  0  0  0  0
 30 71  1  0  0  0  0
 30 72  1  0  0  0  0
 30 73  1  0  0  0  0
 32 74  1  0  0  0  0
 32 75  1  0  0  0  0
 32 76  1  0  0  0  0
 33 35  1  0  0  0  0
 34 36  1  0  0  0  0
 34 37  1  0  0  0  0
 34 77  1  0  0  0  0
 35 38  2  0  0  0  0
 35 39  1  0  0  0  0
 36 78  1  0  0  0  0
 37 39  2  0  0  0  0
 37 79  1  0  0  0  0
 39 40  1  0  0  0  0
 40 80  1  0  0  0  0
 40 81  1  0  0  0  0
 40 82  1  0  0  0  0
M  END
>  <Code-name>
048

>  <Compound>
Colossolactona H (Colo H)

>  <Specie>
Ganoderma colossum

>  <Reference>
CHEN et al., 2016

>  <Organism>
Cytotoxic Activity

>  <Smiles>
C[C@@H]([C@@H](C[C@H]1OC(C)=O)[C@@](C)(CC2)[C@]1(C)C(CC[C@]1(C(C)(C)O3)O)=C2C=C1C=CC3=O)[C@H]([C@@H](C=C1C)O)OC1=O

>  <MMFF94 Energy>
168.54

>  <Total Molweight>
554.677

>  <Molweight>
554.677

>  <Monoisotopic Mass>
554.287970

>  <cLogP>
3.1573

>  <cLogS>
-4.685

>  <H-Acceptors>
8

>  <H-Donors>
2

>  <Total Surface Area>
399.55

>  <Relative PSA>
0.23857

>  <Polar Surface Area>
119.36

>  <Druglikeness>
-4.3425

>  <Mutagenic>
none

>  <Tumorigenic>
none

>  <Reproductive Effective>
none

>  <Irritant>
none

>  <Nasty Functions>


>  <Shape Index>
0.425

>  <Molecular Flexibility>
0.26245

>  <Molecular Complexity>
1.0459

>  <Fragments>
1

>  <Non-H Atoms>
40

>  <Non-C/H Atoms>
8

>  <Metal-Atoms>
0

>  <Electronegative Atoms>
8

>  <Stereo Centers>
8

>  <Rotatable Bonds>
4

>  <Rings Closures>
5

>  <Small Rings>
5

>  <Aromatic Rings>
0

>  <Aromatic Atoms>
0

>  <sp3-Atoms>
26

>  <Symmetric atoms>
1

>  <Amides>
0

>  <Amines>
0

>  <Alkyl-Amines>
0

>  <Aromatic Amines>
0

>  <Aromatic Nitrogens>
0

>  <Basic Nitrogens>
0

>  <Acidic Oxygens>
0

>  <Stereo Configuration>
this enantiomer

> <Gold.Version>
5.8.1

> <Gold.Id.Protein>
ID_2|Prot_COX2_5IKQ_Alig|mol2

> <Gold.Goldscore.Fitness>
-90.5001

> <Gold.Goldscore.Internal.Vdw>
-20.5166

> <Gold.Goldscore.Internal.Torsion>
-11.2255

> <Gold.Goldscore.External.Vdw>
-60.0452

> <Gold.Goldscore.Internal.HBond>
0.0000

> <Gold.Goldscore.External.HBond>
3.3446

> <Gold.Goldscore.Internal.Correction>
-20.4596

> <Gold.Goldscore.Hbonds>
donor molecule, donor type, donor heavy atom, donor atom, acceptor molecule, acceptor atom, score
      P1  H  1374  1386       L1    33  0.37
      P1  H  1377  1389       L1    33  0.18
      L1  H    11    49       P1  8031  0.03

> <Gold.Goldscore.Internal.Vdw.Weighted>
-20.5166

> <Gold.Goldscore.Internal.Torsion.Weighted>
-11.2255

> <Gold.Goldscore.External.Vdw.Weighted>
-82.5622

> <Gold.Goldscore.Internal.HBond.Weighted>
0.0000

> <Gold.Goldscore.External.HBond.Weighted>
3.3446

> <Gold.Goldscore.Internal.Correction.Weighted>
-20.4596

> <Gold.Protein.RotatedTorsions>
[ 5077 5068 5067 5065 ] final -171.32 input  179.94 | X-H torsion
[ 5157 5152 5151 5148 ] final -171.42 input -179.92 | X-H torsion
[ 5185 5176 5175 5173 ] final  -28.74 input -179.99 | X-H torsion
[ 5712 5703 5702 5700 ] final   -9.68 input  180.00 | X-H torsion
[ 8036 8031 8030 8027 ] final  169.26 input -179.94 | X-H torsion
[ 2749 2745 2743 2740 ] final -129.13 input  -60.05 | X-H torsion
[ 1366 1361 1360 1357 ] final   48.19 input  -60.09 | X-H torsion
[ 2556 2551 2550 2547 ] final  123.52 input   59.97 | X-H torsion

> <Gold.Protein.ActiveResidues>
 PRO86   VAL89   HIS90   LEU93   THR94   ILE112  MET113  TYR115  VAL116  LEU117 
 THR118  SER119  ARG120  SER121  LEU123  ILE124  GLN192  SER194  PHE198  PHE201 
 ALA202  GLN203  PHE205  THR206  PHE209  PHE210  VAL228  ILE341  ILE343  VAL344 
 ILE345  GLU346  ASP347  TYR348  VAL349  GLN350  HIS351  LEU352  SER353  GLY354 
 TYR355  PHE357  LEU359  LYS360  GLU380  PHE381  ASN382  THR383  LEU384  TYR385 
 HIS386  TRP387  LEU390  VAL434  LEU507  ARG513  ALA516  ILE517  PHE518  GLY519 
 GLU520  THR521  MET522  VAL523  GLU524  VAL525  GLY526  ALA527  PRO528  PHE529 
 SER530  LEU531  LYS532  GLY533  LEU534  MET535  COH609 

> <Gold.Protein.RotatedAtoms>
   17.8547    7.2025    1.9479 H   0  0  0  0  0  0  0  0  0  0  0  0  # atno 1366 bound_to 1361
    4.9061   -9.8761    6.6960 H   0  0  0  0  0  0  0  0  0  0  0  0  # atno 2556 bound_to 2551
   -2.8802   -0.5135    0.8882 H   0  0  0  0  0  0  0  0  0  0  0  0  # atno 2749 bound_to 2745
    2.0129   -1.6642    3.6947 H   0  0  0  0  0  0  0  0  0  0  0  0  # atno 5077 bound_to 5068
   12.2837   -1.3404    9.2280 H   0  0  0  0  0  0  0  0  0  0  0  0  # atno 5157 bound_to 5152
   16.3825   -0.9045    4.7964 H   0  0  0  0  0  0  0  0  0  0  0  0  # atno 5185 bound_to 5176
    1.7660   -0.8572    2.8275 H   0  0  0  0  0  0  0  0  0  0  0  0  # atno 5712 bound_to 5703
    5.6407    3.6986    3.5045 H   0  0  0  0  0  0  0  0  0  0  0  0  # atno 8036 bound_to 8031
    0.5477   -1.6914    4.0322 LP  0  0  0  0  0  0  0  0  0  0  0  0  # atno 8267 bound_to 5068
    1.5263   -2.9844    4.2255 LP  0  0  0  0  0  0  0  0  0  0  0  0  # atno 8268 bound_to 5068
   12.8725   -2.7253    9.2056 LP  0  0  0  0  0  0  0  0  0  0  0  0  # atno 8279 bound_to 5152
   11.2696   -2.4463    9.3451 LP  0  0  0  0  0  0  0  0  0  0  0  0  # atno 8280 bound_to 5152
   16.0571    0.5269    5.1185 LP  0  0  0  0  0  0  0  0  0  0  0  0  # atno 8281 bound_to 5176
   14.9271   -0.5572    4.6557 LP  0  0  0  0  0  0  0  0  0  0  0  0  # atno 8282 bound_to 5176
    2.0656    0.5962    2.5895 LP  0  0  0  0  0  0  0  0  0  0  0  0  # atno 8283 bound_to 5703
    3.1863   -0.5797    2.4218 LP  0  0  0  0  0  0  0  0  0  0  0  0  # atno 8284 bound_to 5703
    4.6619    4.7992    3.2037 LP  0  0  0  0  0  0  0  0  0  0  0  0  # atno 8309 bound_to 8031
    6.1822    5.0831    3.7280 LP  0  0  0  0  0  0  0  0  0  0  0  0  # atno 8310 bound_to 8031
   -3.5641   -0.0047   -0.3514 LP  0  0  0  0  0  0  0  0  0  0  0  0  # atno 8323 bound_to 2745
   -4.1974    0.1668    1.1440 LP  0  0  0  0  0  0  0  0  0  0  0  0  # atno 8324 bound_to 2745
   17.9362    7.7573    3.3441 LP  0  0  0  0  0  0  0  0  0  0  0  0  # atno 8335 bound_to 1361
   18.9031    6.5543    2.8108 LP  0  0  0  0  0  0  0  0  0  0  0  0  # atno 8336 bound_to 1361
    5.1859   -9.8279    8.1737 LP  0  0  0  0  0  0  0  0  0  0  0  0  # atno 8342 bound_to 2551
    4.4753   -8.5995    7.3658 LP  0  0  0  0  0  0  0  0  0  0  0  0  # atno 8343 bound_to 2551

