
004|LMW3_p|sdf|4|dock2
  -GOLD-   6 62215 13D 1   1.00000     0.00000

 73 76  0  0  0  0  0  0  0  0  1 V2000
    5.1915    1.0166   -2.0818 O   0  0  0  0  0  0  0  0  0  0  0  0
    5.6321    0.5873   -1.0185 C   0  0  0  0  0  0  0  0  0  0  0  0
    6.3312    1.5089   -0.0943 C   0  0  0  0  0  0  0  0  0  0  0  0
    5.4123   -0.8323   -0.5693 C   0  0  0  0  0  0  0  0  0  0  0  0
    6.8630    1.0821    1.0651 C   0  0  0  0  0  0  0  0  0  0  0  0
    6.5818   -1.3085    0.2799 C   0  0  0  0  0  0  0  0  0  0  0  0
    6.8897   -0.3894    1.4994 C   0  0  1  0  0  0  0  0  0  0  0  0
    7.4517    2.0848    2.0286 C   0  0  0  0  0  0  0  0  0  0  0  0
    8.3252   -0.7511    2.0427 C   0  0  1  0  0  0  0  0  0  0  0  0
    5.7951   -0.5952    2.5705 C   0  0  0  0  0  0  0  0  0  0  0  0
    8.8485    1.6873    2.4873 C   0  0  0  0  0  0  0  0  0  0  0  0
    8.8582    0.2747    3.0879 C   0  0  2  0  0  0  0  0  0  0  0  0
    8.4514   -2.2070    2.5585 C   0  0  0  0  0  0  0  0  0  0  0  0
   10.2709   -0.1420    3.5204 C   0  0  2  0  0  0  0  0  0  0  0  0
    9.8519   -2.5448    3.1024 C   0  0  0  0  0  0  0  0  0  0  0  0
   10.3281   -1.5449    4.1682 C   0  0  1  0  0  0  0  0  0  0  0  0
   11.0000    0.7357    4.5213 C   0  0  0  0  0  0  0  0  0  0  0  0
   11.8153   -1.6147    4.6816 C   0  0  2  0  0  0  0  0  0  0  0  0
    9.4181   -1.6884    5.4221 C   0  0  0  0  0  0  0  0  0  0  0  0
   12.2220   -0.1181    4.8585 C   0  0  0  0  0  0  0  0  0  0  0  0
   12.8572   -2.4119    3.8435 C   0  0  2  0  0  0  0  0  0  0  0  0
   12.6039   -3.9048    3.8938 C   0  0  0  0  0  0  0  0  0  0  0  0
   14.2915   -2.2003    4.3583 C   0  0  0  0  0  0  0  0  0  0  0  0
   13.4105   -4.8212    3.3322 C   0  0  0  0  0  0  0  0  0  0  0  0
   13.1558   -6.3126    3.3817 C   0  0  2  0  0  0  0  0  0  0  0  0
   12.0843   -6.7379    2.3396 C   0  0  0  0  0  0  0  0  0  0  0  0
   12.8226   -6.7163    4.8219 C   0  0  0  0  0  0  0  0  0  0  0  0
   12.6718   -7.6824    1.2847 C   0  0  0  0  0  0  0  0  0  0  0  0
   10.8299   -7.3737    2.9491 C   0  0  0  0  0  0  0  0  0  0  0  0
    6.4127    2.5063   -0.3466 H   0  0  0  0  0  0  0  0  0  0  0  0
    5.3207   -1.4635   -1.4285 H   0  0  0  0  0  0  0  0  0  0  0  0
    4.5181   -0.8758    0.0167 H   0  0  0  0  0  0  0  0  0  0  0  0
    7.4533   -1.3502   -0.3395 H   0  0  0  0  0  0  0  0  0  0  0  0
    6.3117   -2.2666    0.6725 H   0  0  0  0  0  0  0  0  0  0  0  0
    6.8144    2.1554    2.8853 H   0  0  0  0  0  0  0  0  0  0  0  0
    7.5263    3.0242    1.5217 H   0  0  0  0  0  0  0  0  0  0  0  0
    8.9597   -0.6836    1.1839 H   0  0  0  0  0  0  0  0  0  0  0  0
    4.9416    0.0027    2.3277 H   0  0  0  0  0  0  0  0  0  0  0  0
    6.1738   -0.3040    3.5280 H   0  0  0  0  0  0  0  0  0  0  0  0
    5.5121   -1.6267    2.5975 H   0  0  0  0  0  0  0  0  0  0  0  0
    9.1832    2.3831    3.2281 H   0  0  0  0  0  0  0  0  0  0  0  0
    9.4983    1.6970    1.6373 H   0  0  0  0  0  0  0  0  0  0  0  0
    8.2256    0.2851    3.9509 H   0  0  0  0  0  0  0  0  0  0  0  0
    8.2318   -2.8732    1.7505 H   0  0  0  0  0  0  0  0  0  0  0  0
    7.7632   -2.3147    3.3707 H   0  0  0  0  0  0  0  0  0  0  0  0
   10.7529   -0.0731    2.5675 H   0  0  0  0  0  0  0  0  0  0  0  0
   10.5469   -2.5358    2.2889 H   0  0  0  0  0  0  0  0  0  0  0  0
    9.7970   -3.5088    3.5634 H   0  0  0  0  0  0  0  0  0  0  0  0
   10.4007    0.9170    5.3890 H   0  0  0  0  0  0  0  0  0  0  0  0
   11.2424    1.7084    4.1472 H   0  0  0  0  0  0  0  0  0  0  0  0
   11.8327   -2.2000    5.5771 H   0  0  0  0  0  0  0  0  0  0  0  0
    9.8017   -1.0782    6.2129 H   0  0  0  0  0  0  0  0  0  0  0  0
    9.4024   -2.7111    5.7362 H   0  0  0  0  0  0  0  0  0  0  0  0
    8.4243   -1.3746    5.1794 H   0  0  0  0  0  0  0  0  0  0  0  0
   12.5245    0.0608    5.8692 H   0  0  0  0  0  0  0  0  0  0  0  0
   13.0411    0.1273    4.2153 H   0  0  0  0  0  0  0  0  0  0  0  0
   12.7516   -2.0420    2.8451 H   0  0  0  0  0  0  0  0  0  0  0  0
   11.7618   -4.2378    4.3889 H   0  0  0  0  0  0  0  0  0  0  0  0
   14.8170   -1.5485    3.6919 H   0  0  0  0  0  0  0  0  0  0  0  0
   14.7957   -3.1428    4.4068 H   0  0  0  0  0  0  0  0  0  0  0  0
   14.2593   -1.7624    5.3340 H   0  0  0  0  0  0  0  0  0  0  0  0
   14.2532   -4.4886    2.8380 H   0  0  0  0  0  0  0  0  0  0  0  0
   14.0380   -6.8479    3.0990 H   0  0  0  0  0  0  0  0  0  0  0  0
   11.7767   -5.8220    1.8800 H   0  0  0  0  0  0  0  0  0  0  0  0
   11.8701   -6.3121    5.0943 H   0  0  0  0  0  0  0  0  0  0  0  0
   13.5738   -6.3353    5.4819 H   0  0  0  0  0  0  0  0  0  0  0  0
   12.7915   -7.7833    4.8951 H   0  0  0  0  0  0  0  0  0  0  0  0
   13.0040   -8.5829    1.7576 H   0  0  0  0  0  0  0  0  0  0  0  0
   13.4997   -7.2067    0.8017 H   0  0  0  0  0  0  0  0  0  0  0  0
   11.9217   -7.9167    0.5585 H   0  0  0  0  0  0  0  0  0  0  0  0
   10.3605   -6.6746    3.6093 H   0  0  0  0  0  0  0  0  0  0  0  0
   11.1046   -8.2515    3.4957 H   0  0  0  0  0  0  0  0  0  0  0  0
   10.1488   -7.6388    2.1675 H   0  0  0  0  0  0  0  0  0  0  0  0
  1  2  2  0  0  0  0
  2  3  1  0  0  0  0
  2  4  1  0  0  0  0
  3  5  2  0  0  0  0
  3 30  1  0  0  0  0
  4  6  1  0  0  0  0
  4 31  1  0  0  0  0
  4 32  1  0  0  0  0
  5  7  1  0  0  0  0
  5  8  1  0  0  0  0
  6  7  1  0  0  0  0
  6 33  1  0  0  0  0
  6 34  1  0  0  0  0
  7  9  1  0  0  0  0
  7 10  1  0  0  0  0
  8 11  1  0  0  0  0
  8 35  1  0  0  0  0
  8 36  1  0  0  0  0
  9 12  1  0  0  0  0
  9 13  1  0  0  0  0
  9 37  1  0  0  0  0
 10 38  1  0  0  0  0
 10 39  1  0  0  0  0
 10 40  1  0  0  0  0
 11 12  1  0  0  0  0
 11 41  1  0  0  0  0
 11 42  1  0  0  0  0
 12 14  1  0  0  0  0
 12 43  1  0  0  0  0
 13 15  1  0  0  0  0
 13 44  1  0  0  0  0
 13 45  1  0  0  0  0
 14 16  1  0  0  0  0
 14 17  1  0  0  0  0
 14 46  1  0  0  0  0
 15 16  1  0  0  0  0
 15 47  1  0  0  0  0
 15 48  1  0  0  0  0
 16 18  1  0  0  0  0
 16 19  1  0  0  0  0
 17 20  1  0  0  0  0
 17 49  1  0  0  0  0
 17 50  1  0  0  0  0
 18 21  1  0  0  0  0
 18 20  1  0  0  0  0
 18 51  1  0  0  0  0
 19 52  1  0  0  0  0
 19 53  1  0  0  0  0
 19 54  1  0  0  0  0
 20 55  1  0  0  0  0
 20 56  1  0  0  0  0
 21 22  1  0  0  0  0
 21 23  1  0  0  0  0
 21 57  1  0  0  0  0
 22 24  2  0  0  0  0
 22 58  1  0  0  0  0
 23 59  1  0  0  0  0
 23 60  1  0  0  0  0
 23 61  1  0  0  0  0
 24 25  1  0  0  0  0
 24 62  1  0  0  0  0
 25 26  1  0  0  0  0
 25 27  1  0  0  0  0
 25 63  1  0  0  0  0
 26 28  1  0  0  0  0
 26 29  1  0  0  0  0
 26 64  1  0  0  0  0
 27 65  1  0  0  0  0
 27 66  1  0  0  0  0
 27 67  1  0  0  0  0
 28 68  1  0  0  0  0
 28 69  1  0  0  0  0
 28 70  1  0  0  0  0
 29 71  1  0  0  0  0
 29 72  1  0  0  0  0
 29 73  1  0  0  0  0
M  END
>  <Code-name>
004

>  <Compound>
(22E,24S)-Ergosta-4,22-dien-3-one

>  <Specie>
Morchella esculenta

>  <Reference>
LEE et al., 2019

>  <Organism>
Antitumoral Activity

>  <Smiles>
CC(C)[C@H](C)/C=C/[C@H](C)[C@@H](CC1)[C@](C)(CC2)[C@H]1[C@@H](CC1)[C@@H]2[C@](C)(CC2)C1=CC2=O

>  <MMFF94 Energy>
96.252

>  <Total Molweight>
396.656

>  <Molweight>
396.656

>  <Monoisotopic Mass>
396.339215

>  <cLogP>
7.2923

>  <cLogS>
-6.222

>  <H-Acceptors>
1

>  <H-Donors>
0

>  <Total Surface Area>
320.42

>  <Relative PSA>
0.040697

>  <Polar Surface Area>
17.07

>  <Druglikeness>
-1.0256

>  <Mutagenic>
none

>  <Tumorigenic>
none

>  <Reproductive Effective>
high

>  <Irritant>
none

>  <Nasty Functions>


>  <Shape Index>
0.55172

>  <Molecular Flexibility>
0.30341

>  <Molecular Complexity>
0.92329

>  <Fragments>
1

>  <Non-H Atoms>
29

>  <Non-C/H Atoms>
1

>  <Metal-Atoms>
0

>  <Electronegative Atoms>
1

>  <Stereo Centers>
8

>  <Rotatable Bonds>
4

>  <Rings Closures>
4

>  <Small Rings>
4

>  <Aromatic Rings>
0

>  <Aromatic Atoms>
0

>  <sp3-Atoms>
23

>  <Symmetric atoms>
1

>  <Amides>
0

>  <Amines>
0

>  <Alkyl-Amines>
0

>  <Aromatic Amines>
0

>  <Aromatic Nitrogens>
0

>  <Basic Nitrogens>
0

>  <Acidic Oxygens>
0

>  <Stereo Configuration>
this enantiomer

> <Gold.Version>
5.8.1

> <Gold.Id.Protein>
ID_2|Prot_COX2_5IKQ_Alig|mol2

> <Gold.Goldscore.Fitness>
-8.3285

> <Gold.Goldscore.Internal.Vdw>
-22.4107

> <Gold.Goldscore.Internal.Torsion>
-9.3530

> <Gold.Goldscore.External.Vdw>
6.5379

> <Gold.Goldscore.Internal.HBond>
0.0000

> <Gold.Goldscore.External.HBond>
0.0000

> <Gold.Goldscore.Internal.Correction>
-14.4457

> <Gold.Goldscore.Internal.Vdw.Weighted>
-22.4107

> <Gold.Goldscore.Internal.Torsion.Weighted>
-9.3530

> <Gold.Goldscore.External.Vdw.Weighted>
8.9896

> <Gold.Goldscore.Internal.HBond.Weighted>
0.0000

> <Gold.Goldscore.External.HBond.Weighted>
0.0000

> <Gold.Goldscore.Internal.Correction.Weighted>
-14.4457

> <Gold.Protein.RotatedTorsions>
[ 5077 5068 5067 5065 ] final -120.12 input  179.94 | X-H torsion
[ 5157 5152 5151 5148 ] final -157.58 input -179.92 | X-H torsion
[ 5185 5176 5175 5173 ] final -174.74 input -179.99 | X-H torsion
[ 5712 5703 5702 5700 ] final -163.61 input  180.00 | X-H torsion
[ 8036 8031 8030 8027 ] final  114.11 input -179.94 | X-H torsion
[ 2749 2745 2743 2740 ] final   -5.15 input  -60.05 | X-H torsion
[ 1366 1361 1360 1357 ] final  -97.09 input  -60.09 | X-H torsion
[ 2556 2551 2550 2547 ] final -100.93 input   59.97 | X-H torsion

> <Gold.Protein.ActiveResidues>
 PRO86   VAL89   HIS90   LEU93   THR94   ILE112  MET113  TYR115  VAL116  LEU117 
 THR118  SER119  ARG120  SER121  LEU123  ILE124  GLN192  SER194  PHE198  PHE201 
 ALA202  GLN203  PHE205  THR206  PHE209  PHE210  VAL228  ILE341  ILE343  VAL344 
 ILE345  GLU346  ASP347  TYR348  VAL349  GLN350  HIS351  LEU352  SER353  GLY354 
 TYR355  PHE357  LEU359  LYS360  GLU380  PHE381  ASN382  THR383  LEU384  TYR385 
 HIS386  TRP387  LEU390  VAL434  LEU507  ARG513  ALA516  ILE517  PHE518  GLY519 
 GLU520  THR521  MET522  VAL523  GLU524  VAL525  GLY526  ALA527  PRO528  PHE529 
 SER530  LEU531  LYS532  GLY533  LEU534  MET535  COH609 

> <Gold.Protein.RotatedAtoms>
   18.2658    7.5156    3.3653 H   0  0  0  0  0  0  0  0  0  0  0  0  # atno 1366 bound_to 1361
    4.5414   -8.7693    7.5810 H   0  0  0  0  0  0  0  0  0  0  0  0  # atno 2556 bound_to 2551
   -4.0888    0.1713    1.0131 H   0  0  0  0  0  0  0  0  0  0  0  0  # atno 2749 bound_to 2745
    2.1562   -2.3052    3.8789 H   0  0  0  0  0  0  0  0  0  0  0  0  # atno 5077 bound_to 5068
   12.0941   -1.3308    9.2442 H   0  0  0  0  0  0  0  0  0  0  0  0  # atno 5157 bound_to 5152
   15.6634    0.3908    5.0725 H   0  0  0  0  0  0  0  0  0  0  0  0  # atno 5185 bound_to 5176
    2.5338    0.4120    2.4309 H   0  0  0  0  0  0  0  0  0  0  0  0  # atno 5712 bound_to 5703
    4.9836    3.9188    3.2753 H   0  0  0  0  0  0  0  0  0  0  0  0  # atno 8036 bound_to 8031
    1.1312   -1.2167    3.7178 LP  0  0  0  0  0  0  0  0  0  0  0  0  # atno 8267 bound_to 5068
    0.7712   -2.6915    4.3194 LP  0  0  0  0  0  0  0  0  0  0  0  0  # atno 8268 bound_to 5068
   12.9961   -2.5347    9.1974 LP  0  0  0  0  0  0  0  0  0  0  0  0  # atno 8279 bound_to 5152
   11.3728   -2.6486    9.3339 LP  0  0  0  0  0  0  0  0  0  0  0  0  # atno 8280 bound_to 5152
   15.1310   -0.9246    4.5774 LP  0  0  0  0  0  0  0  0  0  0  0  0  # atno 8281 bound_to 5176
   16.7167   -0.6610    4.8653 LP  0  0  0  0  0  0  0  0  0  0  0  0  # atno 8282 bound_to 5176
    2.9097   -1.0370    2.5646 LP  0  0  0  0  0  0  0  0  0  0  0  0  # atno 8283 bound_to 5703
    1.4207   -0.4700    2.9226 LP  0  0  0  0  0  0  0  0  0  0  0  0  # atno 8284 bound_to 5703
    5.2733    5.3877    3.4110 LP  0  0  0  0  0  0  0  0  0  0  0  0  # atno 8309 bound_to 8031
    6.3591    4.2303    3.7957 LP  0  0  0  0  0  0  0  0  0  0  0  0  # atno 8310 bound_to 8031
   -2.8091   -0.6198    1.0005 LP  0  0  0  0  0  0  0  0  0  0  0  0  # atno 8323 bound_to 2745
   -3.5049   -0.0382   -0.3575 LP  0  0  0  0  0  0  0  0  0  0  0  0  # atno 8324 bound_to 2745
   18.7899    6.4681    2.4208 LP  0  0  0  0  0  0  0  0  0  0  0  0  # atno 8335 bound_to 1361
   17.5575    7.4690    2.0386 LP  0  0  0  0  0  0  0  0  0  0  0  0  # atno 8336 bound_to 1361
    4.8474   -9.7286    6.4628 LP  0  0  0  0  0  0  0  0  0  0  0  0  # atno 8342 bound_to 2551
    5.2502  -10.0228    8.0178 LP  0  0  0  0  0  0  0  0  0  0  0  0  # atno 8343 bound_to 2551

