
053|LMW3_p|sdf|53|dock6
  -GOLD-   6 722 6323D 1   1.00000     0.00000

 63 67  0  0  0  0  0  0  0  0  1 V2000
    7.3569   -0.5790    2.7301 O   0  0  0  0  0  0  0  0  0  0  0  0
    8.2653   -0.9881    1.7144 C   0  0  1  0  0  0  0  0  0  0  0  0
    6.5557    0.5526    2.3449 C   0  0  1  0  0  0  0  0  0  0  0  0
    9.0280   -2.1315    2.1236 O   0  0  0  0  0  0  0  0  0  0  0  0
    7.4998   -1.4090    0.4475 C   0  0  2  0  0  0  0  0  0  0  0  0
    5.7349    0.2621    1.0781 C   0  0  2  0  0  0  0  0  0  0  0  0
    5.6510    0.9311    3.5281 C   0  0  0  0  0  0  0  0  0  0  0  0
    9.7740   -1.9387    3.3246 C   0  0  0  0  0  0  0  0  0  0  0  0
    8.3984   -1.7995   -0.6046 O   0  0  0  0  0  0  0  0  0  0  0  0
    6.6517   -0.2401   -0.0384 C   0  0  2  0  0  0  0  0  0  0  0  0
    5.0722    1.4484    0.6224 O   0  0  0  0  0  0  0  0  0  0  0  0
    4.4665    1.5923    3.0838 O   0  0  0  0  0  0  0  0  0  0  0  0
   10.8491   -3.0061    3.5116 C   0  0  0  0  0  0  0  0  0  0  0  0
    5.8542   -0.6325   -1.1677 O   0  0  0  0  0  0  0  0  0  0  0  0
   10.2414   -4.4084    3.5123 C   0  0  0  0  0  0  0  0  0  0  0  0
   11.2995   -5.4714    3.6970 C   0  0  0  0  0  0  0  0  0  0  0  0
   11.9568   -6.0132    2.5760 C   0  0  0  0  0  0  0  0  0  0  0  0
   11.6457   -5.8960    4.9925 C   0  0  0  0  0  0  0  0  0  0  0  0
   12.9594   -6.9884    2.6992 C   0  0  0  0  0  0  0  0  0  0  0  0
   12.6459   -6.8710    5.1451 C   0  0  0  0  0  0  0  0  0  0  0  0
   13.6493   -7.5703    1.6744 O   0  0  0  0  0  0  0  0  0  0  0  0
   13.2619   -7.3787    4.0094 C   0  0  0  0  0  0  0  0  0  0  0  0
   13.2502   -7.5339    6.2472 C   0  0  0  0  0  0  0  0  0  0  0  0
   13.3255   -7.1531    0.3559 C   0  0  0  0  0  0  0  0  0  0  0  0
   14.1977   -8.3051    4.3676 O   0  0  0  0  0  0  0  0  0  0  0  0
   14.1930   -8.4024    5.7306 C   0  0  0  0  0  0  0  0  0  0  0  0
   15.1378   -9.3547    6.3130 C   0  0  0  0  0  0  0  0  0  0  0  0
   16.1626   -9.9229    5.5355 C   0  0  0  0  0  0  0  0  0  0  0  0
   15.0341   -9.7211    7.6768 C   0  0  0  0  0  0  0  0  0  0  0  0
   17.0277  -10.8163    6.1344 C   0  0  0  0  0  0  0  0  0  0  0  0
   15.9263  -10.6307    8.2591 C   0  0  0  0  0  0  0  0  0  0  0  0
   18.0652  -11.4494    5.5232 O   0  0  0  0  0  0  0  0  0  0  0  0
   16.9126  -11.1605    7.4591 C   0  0  0  0  0  0  0  0  0  0  0  0
   18.5886  -12.2309    6.6164 C   0  0  0  0  0  0  0  0  0  0  0  0
   17.8612  -12.0523    7.8498 O   0  0  0  0  0  0  0  0  0  0  0  0
    8.9085   -0.1538    1.5268 H   0  0  0  0  0  0  0  0  0  0  0  0
    7.1947    1.3762    2.1037 H   0  0  0  0  0  0  0  0  0  0  0  0
    6.8829   -2.2473    0.6955 H   0  0  0  0  0  0  0  0  0  0  0  0
    5.0076   -0.4842    1.3206 H   0  0  0  0  0  0  0  0  0  0  0  0
    6.1893    1.5832    4.1839 H   0  0  0  0  0  0  0  0  0  0  0  0
    5.3667    0.0337    4.0367 H   0  0  0  0  0  0  0  0  0  0  0  0
    9.1029   -1.9757    4.1571 H   0  0  0  0  0  0  0  0  0  0  0  0
   10.2616   -0.9884    3.2602 H   0  0  0  0  0  0  0  0  0  0  0  0
    8.9105   -2.5733   -0.3218 H   0  0  0  0  0  0  0  0  0  0  0  0
    7.3138    0.5483   -0.3298 H   0  0  0  0  0  0  0  0  0  0  0  0
    5.7323    2.1286    0.4163 H   0  0  0  0  0  0  0  0  0  0  0  0
    4.0037    1.9737    3.8463 H   0  0  0  0  0  0  0  0  0  0  0  0
   11.3465   -2.8408    4.4444 H   0  0  0  0  0  0  0  0  0  0  0  0
   11.5404   -2.9368    2.6979 H   0  0  0  0  0  0  0  0  0  0  0  0
    5.1660   -1.2517   -0.8781 H   0  0  0  0  0  0  0  0  0  0  0  0
    9.7436   -4.5719    2.5793 H   0  0  0  0  0  0  0  0  0  0  0  0
    9.5529   -4.4752    4.3287 H   0  0  0  0  0  0  0  0  0  0  0  0
   11.6933   -5.6833    1.6343 H   0  0  0  0  0  0  0  0  0  0  0  0
   11.1723   -5.4974    5.8183 H   0  0  0  0  0  0  0  0  0  0  0  0
   13.0271   -7.3934    7.2450 H   0  0  0  0  0  0  0  0  0  0  0  0
   12.2700   -7.2405    0.2032 H   0  0  0  0  0  0  0  0  0  0  0  0
   13.8403   -7.7706   -0.3502 H   0  0  0  0  0  0  0  0  0  0  0  0
   13.6221   -6.1339    0.2214 H   0  0  0  0  0  0  0  0  0  0  0  0
   16.2655   -9.6773    4.5385 H   0  0  0  0  0  0  0  0  0  0  0  0
   14.2849   -9.3089    8.2546 H   0  0  0  0  0  0  0  0  0  0  0  0
   15.8467  -10.8944    9.2536 H   0  0  0  0  0  0  0  0  0  0  0  0
   19.6071  -11.9463    6.7794 H   0  0  0  0  0  0  0  0  0  0  0  0
   18.4949  -13.2607    6.3412 H   0  0  0  0  0  0  0  0  0  0  0  0
  1  2  1  0  0  0  0
  1  3  1  0  0  0  0
  2  4  1  0  0  0  0
  2  5  1  0  0  0  0
  2 36  1  0  0  0  0
  3  6  1  0  0  0  0
  3  7  1  0  0  0  0
  3 37  1  0  0  0  0
  4  8  1  0  0  0  0
  5  9  1  0  0  0  0
  5 10  1  0  0  0  0
  5 38  1  0  0  0  0
  6 11  1  0  0  0  0
  6 10  1  0  0  0  0
  6 39  1  0  0  0  0
  7 12  1  0  0  0  0
  7 40  1  0  0  0  0
  7 41  1  0  0  0  0
  8 13  1  0  0  0  0
  8 42  1  0  0  0  0
  8 43  1  0  0  0  0
  9 44  1  0  0  0  0
 10 14  1  0  0  0  0
 10 45  1  0  0  0  0
 11 46  1  0  0  0  0
 12 47  1  0  0  0  0
 13 15  1  0  0  0  0
 13 48  1  0  0  0  0
 13 49  1  0  0  0  0
 14 50  1  0  0  0  0
 15 16  1  0  0  0  0
 15 51  1  0  0  0  0
 15 52  1  0  0  0  0
 16 17  2  0  0  0  0
 16 18  1  0  0  0  0
 17 19  1  0  0  0  0
 17 53  1  0  0  0  0
 18 20  2  0  0  0  0
 18 54  1  0  0  0  0
 19 21  1  0  0  0  0
 19 22  2  0  0  0  0
 20 23  1  0  0  0  0
 20 22  1  0  0  0  0
 21 24  1  0  0  0  0
 22 25  1  0  0  0  0
 23 26  2  0  0  0  0
 23 55  1  0  0  0  0
 24 56  1  0  0  0  0
 24 57  1  0  0  0  0
 24 58  1  0  0  0  0
 25 26  1  0  0  0  0
 26 27  1  0  0  0  0
 27 28  2  0  0  0  0
 27 29  1  0  0  0  0
 28 30  1  0  0  0  0
 28 59  1  0  0  0  0
 29 31  2  0  0  0  0
 29 60  1  0  0  0  0
 30 32  1  0  0  0  0
 30 33  2  0  0  0  0
 31 33  1  0  0  0  0
 31 61  1  0  0  0  0
 32 34  1  0  0  0  0
 33 35  1  0  0  0  0
 34 35  1  0  0  0  0
 34 62  1  0  0  0  0
 34 63  1  0  0  0  0
M  END
>  <Code-name>
053

>  <Compound>
Egonol Glucoside

>  <Specie>
Laetiporus sulphureus

>  <Reference>
SULKOWSKA-ZIAJA et al., 2006

>  <Organism>
Antitumoral Activity

>  <Smiles>
COc1c2oc(-c(cc3)cc4c3OCO4)cc2cc(CCCO[C@@H]([C@@H]([C@H]2O)O)O[C@H](CO)[C@H]2O)c1

>  <MMFF94 Energy>
150.4

>  <Total Molweight>
488.487

>  <Molweight>
488.487

>  <Monoisotopic Mass>
488.168250

>  <cLogP>
2.3529

>  <cLogS>
-5.248

>  <H-Acceptors>
10

>  <H-Donors>
4

>  <Total Surface Area>
349.27

>  <Relative PSA>
0.33358

>  <Polar Surface Area>
140.21

>  <Druglikeness>
-7.5046

>  <Mutagenic>
none

>  <Tumorigenic>
none

>  <Reproductive Effective>
high

>  <Irritant>
none

>  <Nasty Functions>


>  <Shape Index>
0.54286

>  <Molecular Flexibility>
0.41885

>  <Molecular Complexity>
0.91169

>  <Fragments>
1

>  <Non-H Atoms>
35

>  <Non-C/H Atoms>
10

>  <Metal-Atoms>
0

>  <Electronegative Atoms>
10

>  <Stereo Centers>
5

>  <Rotatable Bonds>
8

>  <Rings Closures>
5

>  <Small Rings>
5

>  <Aromatic Rings>
3

>  <Aromatic Atoms>
15

>  <sp3-Atoms>
20

>  <Symmetric atoms>
0

>  <Amides>
0

>  <Amines>
0

>  <Alkyl-Amines>
0

>  <Aromatic Amines>
0

>  <Aromatic Nitrogens>
0

>  <Basic Nitrogens>
0

>  <Acidic Oxygens>
0

>  <Stereo Configuration>
this enantiomer

> <Gold.Version>
5.8.1

> <Gold.Id.Protein>
ID_2|Prot_COX2_5IKQ_Alig|mol2

> <Gold.Goldscore.Fitness>
58.8162

> <Gold.Goldscore.Internal.Vdw>
-8.0821

> <Gold.Goldscore.Internal.Torsion>
-2.9973

> <Gold.Goldscore.External.Vdw>
42.1005

> <Gold.Goldscore.Internal.HBond>
0.0000

> <Gold.Goldscore.External.HBond>
3.0086

> <Gold.Goldscore.Internal.Correction>
-8.9989

> <Gold.Goldscore.Hbonds>
donor molecule, donor type, donor heavy atom, donor atom, acceptor molecule, acceptor atom, score
      P1  H  5703  5712       L1    12  0.85
      P1  H  8031  8036       L1    12  0.62
      L1  H    11    46       P1  7978  0.04

> <Gold.Goldscore.Internal.Vdw.Weighted>
-8.0821

> <Gold.Goldscore.Internal.Torsion.Weighted>
-2.9973

> <Gold.Goldscore.External.Vdw.Weighted>
57.8883

> <Gold.Goldscore.Internal.HBond.Weighted>
0.0000

> <Gold.Goldscore.External.HBond.Weighted>
3.0086

> <Gold.Goldscore.Internal.Correction.Weighted>
-8.9989

> <Gold.Protein.RotatedTorsions>
[ 5077 5068 5067 5065 ] final -150.68 input  179.94 | X-H torsion
[ 5157 5152 5151 5148 ] final -141.72 input -179.92 | X-H torsion
[ 5185 5176 5175 5173 ] final   -8.10 input -179.99 | X-H torsion
[ 5712 5703 5702 5700 ] final  170.57 input  180.00 | X-H torsion
[ 8036 8031 8030 8027 ] final  137.79 input -179.94 | X-H torsion
[ 2749 2745 2743 2740 ] final -148.98 input  -60.05 | X-H torsion
[ 1366 1361 1360 1357 ] final -167.52 input  -60.09 | X-H torsion
[ 2556 2551 2550 2547 ] final   15.43 input   59.97 | X-H torsion

> <Gold.Protein.ActiveResidues>
 PRO86   VAL89   HIS90   LEU93   THR94   ILE112  MET113  TYR115  VAL116  LEU117 
 THR118  SER119  ARG120  SER121  LEU123  ILE124  GLN192  SER194  PHE198  PHE201 
 ALA202  GLN203  PHE205  THR206  PHE209  PHE210  VAL228  ILE341  ILE343  VAL344 
 ILE345  GLU346  ASP347  TYR348  VAL349  GLN350  HIS351  LEU352  SER353  GLY354 
 TYR355  PHE357  LEU359  LYS360  GLU380  PHE381  ASN382  THR383  LEU384  TYR385 
 HIS386  TRP387  LEU390  VAL434  LEU507  ARG513  ALA516  ILE517  PHE518  GLY519 
 GLU520  THR521  MET522  VAL523  GLU524  VAL525  GLY526  ALA527  PRO528  PHE529 
 SER530  LEU531  LYS532  GLY533  LEU534  MET535  COH609 

> <Gold.Protein.RotatedAtoms>
   18.8018    6.8442    3.0606 H   0  0  0  0  0  0  0  0  0  0  0  0  # atno 1366 bound_to 1361
    5.1384   -9.9134    7.9536 H   0  0  0  0  0  0  0  0  0  0  0  0  # atno 2556 bound_to 2551
   -2.8126   -0.5182    0.6245 H   0  0  0  0  0  0  0  0  0  0  0  0  # atno 2749 bound_to 2745
    2.1409   -1.9110    3.7468 H   0  0  0  0  0  0  0  0  0  0  0  0  # atno 5077 bound_to 5068
   11.8814   -1.3758    9.2617 H   0  0  0  0  0  0  0  0  0  0  0  0  # atno 5157 bound_to 5152
   16.1543   -1.0537    4.7230 H   0  0  0  0  0  0  0  0  0  0  0  0  # atno 5185 bound_to 5176
    2.8230    0.2198    2.3725 H   0  0  0  0  0  0  0  0  0  0  0  0  # atno 5712 bound_to 5703
    5.2387    3.7412    3.3649 H   0  0  0  0  0  0  0  0  0  0  0  0  # atno 8036 bound_to 8031
    0.7226   -1.4348    3.8985 LP  0  0  0  0  0  0  0  0  0  0  0  0  # atno 8267 bound_to 5068
    1.1981   -2.9454    4.2968 LP  0  0  0  0  0  0  0  0  0  0  0  0  # atno 8268 bound_to 5068
   13.0771   -2.2873    9.1935 LP  0  0  0  0  0  0  0  0  0  0  0  0  # atno 8279 bound_to 5152
   11.5462   -2.8420    9.3169 LP  0  0  0  0  0  0  0  0  0  0  0  0  # atno 8280 bound_to 5152
   16.3623    0.3814    5.1176 LP  0  0  0  0  0  0  0  0  0  0  0  0  # atno 8281 bound_to 5176
   14.8958   -0.2326    4.7448 LP  0  0  0  0  0  0  0  0  0  0  0  0  # atno 8282 bound_to 5176
    2.5543   -1.2236    2.6938 LP  0  0  0  0  0  0  0  0  0  0  0  0  # atno 8283 bound_to 5703
    1.4290   -0.0526    2.8636 LP  0  0  0  0  0  0  0  0  0  0  0  0  # atno 8284 bound_to 5703
    4.9458    5.2142    3.2989 LP  0  0  0  0  0  0  0  0  0  0  0  0  # atno 8309 bound_to 8031
    6.3805    4.6168    3.8002 LP  0  0  0  0  0  0  0  0  0  0  0  0  # atno 8310 bound_to 8031
   -3.8384    0.1420   -0.2560 LP  0  0  0  0  0  0  0  0  0  0  0  0  # atno 8323 bound_to 2745
   -4.0041    0.0258    1.3644 LP  0  0  0  0  0  0  0  0  0  0  0  0  # atno 8324 bound_to 2745
   18.0213    6.8879    1.7749 LP  0  0  0  0  0  0  0  0  0  0  0  0  # atno 8335 bound_to 1361
   17.6849    7.8524    3.0489 LP  0  0  0  0  0  0  0  0  0  0  0  0  # atno 8336 bound_to 1361
    4.5104   -8.6051    7.5560 LP  0  0  0  0  0  0  0  0  0  0  0  0  # atno 8342 bound_to 2551
    4.8729   -9.7776    6.4788 LP  0  0  0  0  0  0  0  0  0  0  0  0  # atno 8343 bound_to 2551

