
054|LMW3_p|sdf|54|dock105
  -GOLD-   6 722 7 33D 1   1.00000     0.00000

 55 60  0  0  0  0  0  0  0  0  1 V2000
   21.4052    7.1916    0.0529 O   0  0  0  0  0  0  0  0  0  0  0  0
   20.9334    6.2927   -0.6263 C   0  0  0  0  0  0  0  0  0  0  0  0
   19.8880    5.3513   -0.1315 C   0  0  0  0  0  0  0  0  0  0  0  0
   20.9542    6.2684   -2.1088 C   0  0  1  0  0  0  0  0  0  0  0  0
   20.0894    4.0390    0.1556 C   0  0  0  0  0  0  0  0  0  0  0  0
   18.4314    5.6825   -0.3327 C   0  0  2  0  0  0  0  0  0  0  0  0
   21.8364    5.6509   -3.0457 O   0  0  0  0  0  0  0  0  0  0  0  0
   20.8057    4.7909   -2.6035 C   0  0  2  0  0  0  0  0  0  0  0  0
   18.7133    3.3520   -0.0663 C   0  0  2  0  0  0  0  0  0  0  0  0
   21.4288    3.4245    0.6210 C   0  0  0  0  0  0  0  0  0  0  0  0
   17.9824    4.5056    0.5415 C   0  0  0  0  0  0  0  0  0  0  0  0
   17.8245    5.1565   -1.6452 C   0  0  2  0  0  0  0  0  0  0  0  0
   19.5330    4.4056   -3.2823 C   0  0  2  0  0  0  0  0  0  0  0  0
   18.4234    1.8669    0.0402 C   0  0  1  0  0  0  0  0  0  0  0  0
   18.0273    3.6524   -1.4810 C   0  0  1  0  0  0  0  0  0  0  0  0
   21.2592    3.1370    2.0247 O   0  0  0  0  0  0  0  0  0  0  0  0
   22.6746    4.3143    0.5419 C   0  0  0  0  0  0  0  0  0  0  0  0
   21.6345    2.1171   -0.1665 C   0  0  0  0  0  0  0  0  0  0  0  0
   17.1885    4.4982    1.4616 O   0  0  0  0  0  0  0  0  0  0  0  0
   18.3441    5.3891   -3.0667 C   0  0  2  0  0  0  0  0  0  0  0  0
   18.8669    3.1179   -2.6263 C   0  0  2  0  0  0  0  0  0  0  0  0
   18.8235    1.2095   -1.2139 O   0  0  0  0  0  0  0  0  0  0  0  0
   18.8107    1.1419    1.3034 C   0  0  0  0  0  0  0  0  0  0  0  0
   20.4177    3.9735    2.8023 C   0  0  0  0  0  0  0  0  0  0  0  0
   18.5580    6.7454   -3.3600 O   0  0  0  0  0  0  0  0  0  0  0  0
   19.7019    2.1126   -2.0459 O   0  0  0  0  0  0  0  0  0  0  0  0
   18.4542   -0.0689    1.7807 C   0  0  0  0  0  0  0  0  0  0  0  0
   17.4886   -1.0206    1.1292 C   0  0  0  0  0  0  0  0  0  0  0  0
   19.0218   -0.5691    3.0856 C   0  0  0  0  0  0  0  0  0  0  0  0
   20.5792    7.2703   -2.1288 H   0  0  0  0  0  0  0  0  0  0  0  0
   18.2128    6.7234   -0.2156 H   0  0  0  0  0  0  0  0  0  0  0  0
   20.8277    3.7808   -2.2512 H   0  0  0  0  0  0  0  0  0  0  0  0
   16.8943    5.6843   -1.6799 H   0  0  0  0  0  0  0  0  0  0  0  0
   19.8651    4.3246   -4.2963 H   0  0  0  0  0  0  0  0  0  0  0  0
   17.3632    1.7915    0.1644 H   0  0  0  0  0  0  0  0  0  0  0  0
   17.0799    3.1556   -1.5049 H   0  0  0  0  0  0  0  0  0  0  0  0
   22.4669    5.2602    0.9968 H   0  0  0  0  0  0  0  0  0  0  0  0
   22.9423    4.4627   -0.4834 H   0  0  0  0  0  0  0  0  0  0  0  0
   23.4842    3.8409    1.0569 H   0  0  0  0  0  0  0  0  0  0  0  0
   22.4739    1.5879    0.2339 H   0  0  0  0  0  0  0  0  0  0  0  0
   21.8150    2.3454   -1.1961 H   0  0  0  0  0  0  0  0  0  0  0  0
   20.7576    1.5095   -0.0844 H   0  0  0  0  0  0  0  0  0  0  0  0
   17.6089    5.1557   -3.8083 H   0  0  0  0  0  0  0  0  0  0  0  0
   18.3794    2.6203   -3.4385 H   0  0  0  0  0  0  0  0  0  0  0  0
   19.4632    1.6630    1.9098 H   0  0  0  0  0  0  0  0  0  0  0  0
   20.6534    4.9985    2.6056 H   0  0  0  0  0  0  0  0  0  0  0  0
   20.5694    3.7655    3.8408 H   0  0  0  0  0  0  0  0  0  0  0  0
   19.3955    3.7873    2.5469 H   0  0  0  0  0  0  0  0  0  0  0  0
   19.0030    6.8243   -4.2183 H   0  0  0  0  0  0  0  0  0  0  0  0
   16.5359   -0.9473    1.6108 H   0  0  0  0  0  0  0  0  0  0  0  0
   17.8579   -2.0208    1.2194 H   0  0  0  0  0  0  0  0  0  0  0  0
   17.3852   -0.7706    0.0939 H   0  0  0  0  0  0  0  0  0  0  0  0
   19.3599    0.2616    3.6692 H   0  0  0  0  0  0  0  0  0  0  0  0
   19.8441   -1.2249    2.8888 H   0  0  0  0  0  0  0  0  0  0  0  0
   18.2643   -1.0989    3.6244 H   0  0  0  0  0  0  0  0  0  0  0  0
  1  2  2  0  0  0  0
  2  3  1  0  0  0  0
  2  4  1  0  0  0  0
  3  5  2  0  0  0  0
  3  6  1  0  0  0  0
  4  7  1  0  0  0  0
  4  8  1  0  0  0  0
  4 30  1  0  0  0  0
  5 10  1  0  0  0  0
  6 11  1  0  0  0  0
  6 12  1  0  0  0  0
  6 31  1  0  0  0  0
  7  8  1  0  0  0  0
  8 13  1  0  0  0  0
  8 32  1  0  0  0  0
  9  5  1  0  0  0  0
  9 14  1  0  0  0  0
  9 15  1  0  0  0  0
  9 11  1  0  0  0  0
 10 16  1  0  0  0  0
 10 17  1  0  0  0  0
 10 18  1  0  0  0  0
 11 19  2  0  0  0  0
 12 20  1  0  0  0  0
 12 15  1  0  0  0  0
 12 33  1  0  0  0  0
 13 21  1  0  0  0  0
 13 20  1  0  0  0  0
 13 34  1  0  0  0  0
 14 22  1  0  0  0  0
 14 23  1  0  0  0  0
 14 35  1  0  0  0  0
 15 21  1  0  0  0  0
 15 36  1  0  0  0  0
 16 24  1  0  0  0  0
 17 37  1  0  0  0  0
 17 38  1  0  0  0  0
 17 39  1  0  0  0  0
 18 40  1  0  0  0  0
 18 41  1  0  0  0  0
 18 42  1  0  0  0  0
 20 25  1  0  0  0  0
 20 43  1  0  0  0  0
 21 26  1  0  0  0  0
 21 44  1  0  0  0  0
 22 26  1  0  0  0  0
 23 27  2  0  0  0  0
 23 45  1  0  0  0  0
 24 46  1  0  0  0  0
 24 47  1  0  0  0  0
 24 48  1  0  0  0  0
 25 49  1  0  0  0  0
 27 28  1  0  0  0  0
 27 29  1  0  0  0  0
 28 50  1  0  0  0  0
 28 51  1  0  0  0  0
 28 52  1  0  0  0  0
 29 53  1  0  0  0  0
 29 54  1  0  0  0  0
 29 55  1  0  0  0  0
M  END
>  <Code-name>
054

>  <Compound>
Henaciclinol

>  <Specie>
Lentinus e Panus rudis

>  <Reference>
FILHO, 2009

>  <Organism>
Antitumoral Activity

>  <Smiles>
CC(C)(C([C@@]1([C@H](C=C(C)C)OO[C@H]([C@H]([C@H]2O[C@@H]22)[C@@H]3O)[C@@H]1[C@H]3[C@H]13)C3=O)=C1C2=O)OC

>  <MMFF94 Energy>
230.03

>  <Total Molweight>
402.441

>  <Molweight>
402.441

>  <Monoisotopic Mass>
402.167855

>  <cLogP>
1.3434

>  <cLogS>
-2.961

>  <H-Acceptors>
7

>  <H-Donors>
1

>  <Total Surface Area>
264.25

>  <Relative PSA>
0.32859

>  <Polar Surface Area>
94.59

>  <Druglikeness>
-3.4515

>  <Mutagenic>
none

>  <Tumorigenic>
high

>  <Reproductive Effective>
none

>  <Irritant>
high

>  <Nasty Functions>
oxiran/aziridine; peroxo

>  <Shape Index>
0.34483

>  <Molecular Flexibility>
0.2805

>  <Molecular Complexity>
1.1204

>  <Fragments>
1

>  <Non-H Atoms>
29

>  <Non-C/H Atoms>
7

>  <Metal-Atoms>
0

>  <Electronegative Atoms>
7

>  <Stereo Centers>
10

>  <Rotatable Bonds>
3

>  <Rings Closures>
6

>  <Small Rings>
6

>  <Aromatic Rings>
0

>  <Aromatic Atoms>
0

>  <sp3-Atoms>
21

>  <Symmetric atoms>
2

>  <Amides>
0

>  <Amines>
0

>  <Alkyl-Amines>
0

>  <Aromatic Amines>
0

>  <Aromatic Nitrogens>
0

>  <Basic Nitrogens>
0

>  <Acidic Oxygens>
0

>  <Stereo Configuration>
this enantiomer

> <Gold.Version>
5.8.1

> <Gold.Id.Protein>
ID_2|Prot_COX2_5IKQ_Alig|mol2

> <Gold.Goldscore.Fitness>
23.1611

> <Gold.Goldscore.Internal.Vdw>
-12.6766

> <Gold.Goldscore.Internal.Torsion>
-4.9641

> <Gold.Goldscore.External.Vdw>
24.2616

> <Gold.Goldscore.Internal.HBond>
0.0000

> <Gold.Goldscore.External.HBond>
0.0000

> <Gold.Goldscore.Internal.Correction>
-7.4421

> <Gold.Goldscore.Internal.Vdw.Weighted>
-12.6766

> <Gold.Goldscore.Internal.Torsion.Weighted>
-4.9641

> <Gold.Goldscore.External.Vdw.Weighted>
33.3596

> <Gold.Goldscore.Internal.HBond.Weighted>
0.0000

> <Gold.Goldscore.External.HBond.Weighted>
0.0000

> <Gold.Goldscore.Internal.Correction.Weighted>
-7.4421

> <Gold.Protein.RotatedTorsions>
[ 5077 5068 5067 5065 ] final -144.15 input  179.94 | X-H torsion
[ 5157 5152 5151 5148 ] final -101.37 input -179.92 | X-H torsion
[ 5185 5176 5175 5173 ] final -121.43 input -179.99 | X-H torsion
[ 5712 5703 5702 5700 ] final  170.58 input  180.00 | X-H torsion
[ 8036 8031 8030 8027 ] final   97.42 input -179.94 | X-H torsion
[ 2749 2745 2743 2740 ] final  119.60 input  -60.05 | X-H torsion
[ 1366 1361 1360 1357 ] final  134.25 input  -60.09 | X-H torsion
[ 2556 2551 2550 2547 ] final -101.50 input   59.97 | X-H torsion

> <Gold.Protein.ActiveResidues>
 PRO86   VAL89   HIS90   LEU93   THR94   ILE112  MET113  TYR115  VAL116  LEU117 
 THR118  SER119  ARG120  SER121  LEU123  ILE124  GLN192  SER194  PHE198  PHE201 
 ALA202  GLN203  PHE205  THR206  PHE209  PHE210  VAL228  ILE341  ILE343  VAL344 
 ILE345  GLU346  ASP347  TYR348  VAL349  GLN350  HIS351  LEU352  SER353  GLY354 
 TYR355  PHE357  LEU359  LYS360  GLU380  PHE381  ASN382  THR383  LEU384  TYR385 
 HIS386  TRP387  LEU390  VAL434  LEU507  ARG513  ALA516  ILE517  PHE518  GLY519 
 GLU520  THR521  MET522  VAL523  GLU524  VAL525  GLY526  ALA527  PRO528  PHE529 
 SER530  LEU531  LYS532  GLY533  LEU534  MET535  COH609 

> <Gold.Protein.RotatedAtoms>
   18.6679    6.6122    2.3397 H   0  0  0  0  0  0  0  0  0  0  0  0  # atno 1366 bound_to 1361
    4.5395   -8.7680    7.5735 H   0  0  0  0  0  0  0  0  0  0  0  0  # atno 2556 bound_to 2551
   -3.4293   -0.0523   -0.2010 H   0  0  0  0  0  0  0  0  0  0  0  0  # atno 2749 bound_to 2745
    2.1623   -1.9951    3.7703 H   0  0  0  0  0  0  0  0  0  0  0  0  # atno 5077 bound_to 5068
   11.4650   -1.7267    9.2929 H   0  0  0  0  0  0  0  0  0  0  0  0  # atno 5157 bound_to 5152
   16.3410    0.1921    5.1061 H   0  0  0  0  0  0  0  0  0  0  0  0  # atno 5185 bound_to 5176
    2.8230    0.2198    2.3725 H   0  0  0  0  0  0  0  0  0  0  0  0  # atno 5712 bound_to 5703
    4.8554    4.1027    3.2295 H   0  0  0  0  0  0  0  0  0  0  0  0  # atno 8036 bound_to 8031
    0.7973   -1.3699    3.8568 LP  0  0  0  0  0  0  0  0  0  0  0  0  # atno 8267 bound_to 5068
    1.0978   -2.9096    4.3104 LP  0  0  0  0  0  0  0  0  0  0  0  0  # atno 8268 bound_to 5068
   12.9656   -1.6463    9.2107 LP  0  0  0  0  0  0  0  0  0  0  0  0  # atno 8279 bound_to 5152
   12.1558   -3.0634    9.2624 LP  0  0  0  0  0  0  0  0  0  0  0  0  # atno 8280 bound_to 5152
   14.9110   -0.1315    4.7759 LP  0  0  0  0  0  0  0  0  0  0  0  0  # atno 8281 bound_to 5176
   16.1231   -1.2155    4.6265 LP  0  0  0  0  0  0  0  0  0  0  0  0  # atno 8282 bound_to 5176
    2.5544   -1.2236    2.6938 LP  0  0  0  0  0  0  0  0  0  0  0  0  # atno 8283 bound_to 5703
    1.4290   -0.0526    2.8636 LP  0  0  0  0  0  0  0  0  0  0  0  0  # atno 8284 bound_to 5703
    5.5305    5.4184    3.4998 LP  0  0  0  0  0  0  0  0  0  0  0  0  # atno 8309 bound_to 8031
    6.2558    3.9790    3.7618 LP  0  0  0  0  0  0  0  0  0  0  0  0  # atno 8310 bound_to 8031
   -4.2567    0.2166    1.0264 LP  0  0  0  0  0  0  0  0  0  0  0  0  # atno 8323 bound_to 2745
   -2.8472   -0.6069    1.0707 LP  0  0  0  0  0  0  0  0  0  0  0  0  # atno 8324 bound_to 2745
   17.5166    7.5608    2.1428 LP  0  0  0  0  0  0  0  0  0  0  0  0  # atno 8335 bound_to 1361
   18.3498    7.4570    3.5434 LP  0  0  0  0  0  0  0  0  0  0  0  0  # atno 8336 bound_to 1361
    4.8515   -9.7368    6.4652 LP  0  0  0  0  0  0  0  0  0  0  0  0  # atno 8342 bound_to 2551
    5.2483  -10.0163    8.0244 LP  0  0  0  0  0  0  0  0  0  0  0  0  # atno 8343 bound_to 2551

