
056|LMW3_p|sdf|56|dock1
  -GOLD-   6 722 9 33D 1   1.00000     0.00000

 36 38  0  0  0  0  0  0  0  0  1 V2000
    7.2363    2.9055    3.6265 O   0  0  0  0  0  0  0  0  0  0  0  0
    7.8686    1.8504    3.6374 C   0  0  0  0  0  0  0  0  0  0  0  0
    9.3171    1.8482    3.9346 C   0  0  0  0  0  0  0  0  0  0  0  0
    7.2437    0.4459    3.4091 C   0  0  2  0  0  0  0  0  0  0  0  0
   10.1650    0.6666    3.8380 C   0  0  0  0  0  0  0  0  0  0  0  0
   10.0392    2.8439    4.4605 C   0  0  0  0  0  0  0  0  0  0  0  0
    6.9456   -0.1789    4.6664 O   0  0  0  0  0  0  0  0  0  0  0  0
    8.2755   -0.4534    2.6707 C   0  0  0  0  0  0  0  0  0  0  0  0
    5.8947    0.6191    2.7053 C   0  0  0  0  0  0  0  0  0  0  0  0
    9.6575   -0.4754    3.3173 C   0  0  0  0  0  0  0  0  0  0  0  0
   11.4733    1.0444    4.3879 C   0  0  0  0  0  0  0  0  0  0  0  0
   11.3806    2.3519    4.7313 C   0  0  0  0  0  0  0  0  0  0  0  0
    8.3252   -0.4261    1.1421 C   0  0  0  0  0  0  0  0  0  0  0  0
    7.8044   -1.6434    1.8430 C   0  0  0  0  0  0  0  0  0  0  0  0
   10.3641   -1.8061    3.3562 C   0  0  0  0  0  0  0  0  0  0  0  0
   12.7004    0.2038    4.4436 C   0  0  0  0  0  0  0  0  0  0  0  0
   12.3992    3.2624    5.3233 C   0  0  0  0  0  0  0  0  0  0  0  0
   13.8432    1.0463    4.4580 O   0  0  0  0  0  0  0  0  0  0  0  0
    9.7007    3.8015    4.6435 H   0  0  0  0  0  0  0  0  0  0  0  0
    7.7700   -0.3368    5.1525 H   0  0  0  0  0  0  0  0  0  0  0  0
    6.0548    0.9833    1.7120 H   0  0  0  0  0  0  0  0  0  0  0  0
    5.2957    1.3190    3.2496 H   0  0  0  0  0  0  0  0  0  0  0  0
    5.3910   -0.3240    2.6626 H   0  0  0  0  0  0  0  0  0  0  0  0
    9.2682   -0.4629    0.6379 H   0  0  0  0  0  0  0  0  0  0  0  0
    7.9451    0.2297    0.3868 H   0  0  0  0  0  0  0  0  0  0  0  0
    6.7620   -1.8804    1.7957 H   0  0  0  0  0  0  0  0  0  0  0  0
    8.0456   -2.6856    1.8194 H   0  0  0  0  0  0  0  0  0  0  0  0
   11.0673   -1.8131    4.1626 H   0  0  0  0  0  0  0  0  0  0  0  0
   10.8798   -1.9633    2.4320 H   0  0  0  0  0  0  0  0  0  0  0  0
    9.6468   -2.5866    3.5016 H   0  0  0  0  0  0  0  0  0  0  0  0
   12.7367   -0.4339    3.5852 H   0  0  0  0  0  0  0  0  0  0  0  0
   12.6851   -0.3964    5.3293 H   0  0  0  0  0  0  0  0  0  0  0  0
   13.0703    3.5923    4.5581 H   0  0  0  0  0  0  0  0  0  0  0  0
   12.9483    2.7401    6.0786 H   0  0  0  0  0  0  0  0  0  0  0  0
   11.9107    4.1091    5.7587 H   0  0  0  0  0  0  0  0  0  0  0  0
   14.6372    0.5117    4.6150 H   0  0  0  0  0  0  0  0  0  0  0  0
  1  2  2  0  0  0  0
  2  3  1  0  0  0  0
  2  4  1  0  0  0  0
  3  5  1  0  0  0  0
  3  6  2  0  0  0  0
  4  7  1  0  0  0  0
  4  8  1  0  0  0  0
  4  9  1  0  0  0  0
  5 10  2  0  0  0  0
  5 11  1  0  0  0  0
  6 12  1  0  0  0  0
  6 19  1  0  0  0  0
  7 20  1  0  0  0  0
  8 13  1  0  0  0  0
  8 14  1  0  0  0  0
  8 10  1  0  0  0  0
  9 21  1  0  0  0  0
  9 22  1  0  0  0  0
  9 23  1  0  0  0  0
 10 15  1  0  0  0  0
 11 16  1  0  0  0  0
 11 12  2  0  0  0  0
 12 17  1  0  0  0  0
 13 14  1  0  0  0  0
 13 24  1  0  0  0  0
 13 25  1  0  0  0  0
 14 26  1  0  0  0  0
 14 27  1  0  0  0  0
 15 28  1  0  0  0  0
 15 29  1  0  0  0  0
 15 30  1  0  0  0  0
 16 18  1  0  0  0  0
 16 31  1  0  0  0  0
 16 32  1  0  0  0  0
 17 33  1  0  0  0  0
 17 34  1  0  0  0  0
 17 35  1  0  0  0  0
 18 36  1  0  0  0  0
M  END
>  <Code-name>
056

>  <Compound>
Irofulveno

>  <Specie>
Omphalotus olearis e
Lampteromyces
japonicus

>  <Reference>
COTA et al, 2008

>  <Organism>
Antitumoral Activity

>  <Smiles>
C[C@@](C1(CC1)C(C)=C1C2=CC(C)=C1CO)(C2=O)O

>  <MMFF94 Energy>
115.47

>  <Total Molweight>
246.305

>  <Molweight>
246.305

>  <Monoisotopic Mass>
246.125595

>  <cLogP>
1.594

>  <cLogS>
-1.72

>  <H-Acceptors>
3

>  <H-Donors>
2

>  <Total Surface Area>
172.88

>  <Relative PSA>
0.22698

>  <Polar Surface Area>
57.53

>  <Druglikeness>
2.5988

>  <Mutagenic>
none

>  <Tumorigenic>
none

>  <Reproductive Effective>
none

>  <Irritant>
none

>  <Nasty Functions>


>  <Shape Index>
0.44444

>  <Molecular Flexibility>
0.22367

>  <Molecular Complexity>
0.9383

>  <Fragments>
1

>  <Non-H Atoms>
18

>  <Non-C/H Atoms>
3

>  <Metal-Atoms>
0

>  <Electronegative Atoms>
3

>  <Stereo Centers>
1

>  <Rotatable Bonds>
1

>  <Rings Closures>
3

>  <Small Rings>
3

>  <Aromatic Rings>
0

>  <Aromatic Atoms>
0

>  <sp3-Atoms>
10

>  <Symmetric atoms>
1

>  <Amides>
0

>  <Amines>
0

>  <Alkyl-Amines>
0

>  <Aromatic Amines>
0

>  <Aromatic Nitrogens>
0

>  <Basic Nitrogens>
0

>  <Acidic Oxygens>
0

>  <Stereo Configuration>
this enantiomer

> <Gold.Version>
5.8.1

> <Gold.Id.Protein>
ID_2|Prot_COX2_5IKQ_Alig|mol2

> <Gold.Goldscore.Fitness>
48.3489

> <Gold.Goldscore.Internal.Vdw>
-3.4692

> <Gold.Goldscore.Internal.Torsion>
-2.2057

> <Gold.Goldscore.External.Vdw>
33.8070

> <Gold.Goldscore.Internal.HBond>
0.0000

> <Gold.Goldscore.External.HBond>
2.4203

> <Gold.Goldscore.Internal.Correction>
-5.1188

> <Gold.Goldscore.Hbonds>
donor molecule, donor type, donor heavy atom, donor atom, acceptor molecule, acceptor atom, score
      P1  H  8031  8036       L1     1  0.21
      L1  H    18    36       P1  5176  1.00

> <Gold.Goldscore.Internal.Vdw.Weighted>
-3.4692

> <Gold.Goldscore.Internal.Torsion.Weighted>
-2.2057

> <Gold.Goldscore.External.Vdw.Weighted>
46.4847

> <Gold.Goldscore.Internal.HBond.Weighted>
0.0000

> <Gold.Goldscore.External.HBond.Weighted>
2.4203

> <Gold.Goldscore.Internal.Correction.Weighted>
-5.1188

> <Gold.Protein.RotatedTorsions>
[ 5077 5068 5067 5065 ] final -142.76 input  179.94 | X-H torsion
[ 5157 5152 5151 5148 ] final  105.75 input -179.92 | X-H torsion
[ 5185 5176 5175 5173 ] final  -72.94 input -179.99 | X-H torsion
[ 5712 5703 5702 5700 ] final  170.38 input  180.00 | X-H torsion
[ 8036 8031 8030 8027 ] final -153.17 input -179.94 | X-H torsion
[ 2749 2745 2743 2740 ] final   35.91 input  -60.05 | X-H torsion
[ 1366 1361 1360 1357 ] final  -86.71 input  -60.09 | X-H torsion
[ 2556 2551 2550 2547 ] final  -93.58 input   59.97 | X-H torsion

> <Gold.Protein.ActiveResidues>
 PRO86   VAL89   HIS90   LEU93   THR94   ILE112  MET113  TYR115  VAL116  LEU117 
 THR118  SER119  ARG120  SER121  LEU123  ILE124  GLN192  SER194  PHE198  PHE201 
 ALA202  GLN203  PHE205  THR206  PHE209  PHE210  VAL228  ILE341  ILE343  VAL344 
 ILE345  GLU346  ASP347  TYR348  VAL349  GLN350  HIS351  LEU352  SER353  GLY354 
 TYR355  PHE357  LEU359  LYS360  GLU380  PHE381  ASN382  THR383  LEU384  TYR385 
 HIS386  TRP387  LEU390  VAL434  LEU507  ARG513  ALA516  ILE517  PHE518  GLY519 
 GLU520  THR521  MET522  VAL523  GLU524  VAL525  GLY526  ALA527  PRO528  PHE529 
 SER530  LEU531  LYS532  GLY533  LEU534  MET535  COH609 

> <Gold.Protein.RotatedAtoms>
   18.1577    7.5976    3.3202 H   0  0  0  0  0  0  0  0  0  0  0  0  # atno 1366 bound_to 1361
    4.5688   -8.7933    7.6755 H   0  0  0  0  0  0  0  0  0  0  0  0  # atno 2556 bound_to 2551
   -4.1632    0.2848    0.4761 H   0  0  0  0  0  0  0  0  0  0  0  0  # atno 2749 bound_to 2745
    2.1656   -2.0131    3.7757 H   0  0  0  0  0  0  0  0  0  0  0  0  # atno 5077 bound_to 5068
   12.9352   -2.1563    9.1628 H   0  0  0  0  0  0  0  0  0  0  0  0  # atno 5157 bound_to 5152
   16.6042   -0.3846    4.9755 H   0  0  0  0  0  0  0  0  0  0  0  0  # atno 5185 bound_to 5176
    2.8249    0.2178    2.3722 H   0  0  0  0  0  0  0  0  0  0  0  0  # atno 5712 bound_to 5703
    6.0619    3.9432    3.6485 H   0  0  0  0  0  0  0  0  0  0  0  0  # atno 8036 bound_to 8031
    0.8143   -1.3573    3.8481 LP  0  0  0  0  0  0  0  0  0  0  0  0  # atno 8267 bound_to 5068
    1.0768   -2.9006    4.3127 LP  0  0  0  0  0  0  0  0  0  0  0  0  # atno 8268 bound_to 5068
   11.6427   -2.9135    9.3078 LP  0  0  0  0  0  0  0  0  0  0  0  0  # atno 8279 bound_to 5152
   11.7202   -1.2824    9.3209 LP  0  0  0  0  0  0  0  0  0  0  0  0  # atno 8280 bound_to 5152
   15.3596    0.4574    5.0052 LP  0  0  0  0  0  0  0  0  0  0  0  0  # atno 8281 bound_to 5176
   15.3584   -1.1120    4.5539 LP  0  0  0  0  0  0  0  0  0  0  0  0  # atno 8282 bound_to 5176
    2.5513   -1.2243    2.6948 LP  0  0  0  0  0  0  0  0  0  0  0  0  # atno 8283 bound_to 5703
    1.4297   -0.0495    2.8629 LP  0  0  0  0  0  0  0  0  0  0  0  0  # atno 8284 bound_to 5703
    4.6476    4.1916    3.2033 LP  0  0  0  0  0  0  0  0  0  0  0  0  # atno 8309 bound_to 8031
    5.6912    5.3971    3.5556 LP  0  0  0  0  0  0  0  0  0  0  0  0  # atno 8310 bound_to 8031
   -3.2549   -0.4196    1.4468 LP  0  0  0  0  0  0  0  0  0  0  0  0  # atno 8323 bound_to 2745
   -2.9700   -0.3744   -0.1605 LP  0  0  0  0  0  0  0  0  0  0  0  0  # atno 8324 bound_to 2745
   18.8518    6.4875    2.5787 LP  0  0  0  0  0  0  0  0  0  0  0  0  # atno 8335 bound_to 1361
   17.6249    7.3516    1.9347 LP  0  0  0  0  0  0  0  0  0  0  0  0  # atno 8336 bound_to 1361
    4.7940   -9.6225    6.4403 LP  0  0  0  0  0  0  0  0  0  0  0  0  # atno 8342 bound_to 2551
    5.2708  -10.1002    7.9273 LP  0  0  0  0  0  0  0  0  0  0  0  0  # atno 8343 bound_to 2551

