
058|LMW3_p|sdf|58|dock3
  -GOLD-   6 722 9 43D 1   1.00000     0.00000

 28 28  0  0  0  0  0  0  0  0  1 V2000
   10.1780   -7.0258    4.0328 O   0  0  0  0  0  0  0  0  0  0  0  0
   11.2592   -6.5705    3.6808 C   0  0  0  0  0  0  0  0  0  0  0  0
   11.5225   -5.1181    3.6628 C   0  0  0  0  0  0  0  0  0  0  0  0
   12.8378   -4.6498    3.7316 C   0  0  0  0  0  0  0  0  0  0  0  0
   10.4442   -4.2263    3.5742 C   0  0  0  0  0  0  0  0  0  0  0  0
   13.0581   -3.2805    3.7061 C   0  0  0  0  0  0  0  0  0  0  0  0
   10.6685   -2.8382    3.5559 C   0  0  0  0  0  0  0  0  0  0  0  0
   14.3199   -2.7533    3.7654 O   0  0  0  0  0  0  0  0  0  0  0  0
   11.9887   -2.3854    3.6169 C   0  0  0  0  0  0  0  0  0  0  0  0
    9.5049   -1.8839    3.4370 C   0  0  0  0  0  0  0  0  0  0  0  0
   12.2628   -1.0449    3.5914 O   0  0  0  0  0  0  0  0  0  0  0  0
    8.6945   -2.1281    2.1949 C   0  0  0  0  0  0  0  0  0  0  0  0
    8.6591   -1.3745    1.0800 C   0  0  0  0  0  0  0  0  0  0  0  0
    7.7646   -1.8216   -0.0309 C   0  0  0  0  0  0  0  0  0  0  0  0
    9.4337   -0.1254    0.8042 C   0  0  0  0  0  0  0  0  0  0  0  0
    7.2011   -2.9090   -0.0615 O   0  0  0  0  0  0  0  0  0  0  0  0
   12.0063   -7.2198    3.3889 H   0  0  0  0  0  0  0  0  0  0  0  0
   13.6286   -5.3092    3.7999 H   0  0  0  0  0  0  0  0  0  0  0  0
    9.4801   -4.5908    3.5223 H   0  0  0  0  0  0  0  0  0  0  0  0
   15.0652   -3.3211    3.7682 H   0  0  0  0  0  0  0  0  0  0  0  0
    9.8817   -0.8827    3.4112 H   0  0  0  0  0  0  0  0  0  0  0  0
    8.8662   -2.0381    4.2815 H   0  0  0  0  0  0  0  0  0  0  0  0
   13.0975   -0.7318    3.8800 H   0  0  0  0  0  0  0  0  0  0  0  0
    8.0970   -2.9696    2.1971 H   0  0  0  0  0  0  0  0  0  0  0  0
    7.6124   -1.1747   -0.8204 H   0  0  0  0  0  0  0  0  0  0  0  0
    8.9642    0.7012    1.2952 H   0  0  0  0  0  0  0  0  0  0  0  0
    9.4583    0.0534   -0.2505 H   0  0  0  0  0  0  0  0  0  0  0  0
   10.4328   -0.2372    1.1703 H   0  0  0  0  0  0  0  0  0  0  0  0
  1  2  2  0  0  0  0
  2  3  1  0  0  0  0
  2 17  1  0  0  0  0
  3  4  2  0  0  0  0
  3  5  1  0  0  0  0
  4  6  1  0  0  0  0
  4 18  1  0  0  0  0
  5  7  2  0  0  0  0
  5 19  1  0  0  0  0
  6  8  1  0  0  0  0
  6  9  2  0  0  0  0
  7 10  1  0  0  0  0
  7  9  1  0  0  0  0
  8 20  1  0  0  0  0
  9 11  1  0  0  0  0
 10 12  1  0  0  0  0
 10 21  1  0  0  0  0
 10 22  1  0  0  0  0
 11 23  1  0  0  0  0
 12 13  2  0  0  0  0
 12 24  1  0  0  0  0
 13 14  1  0  0  0  0
 13 15  1  0  0  0  0
 14 16  2  0  0  0  0
 14 25  1  0  0  0  0
 15 26  1  0  0  0  0
 15 27  1  0  0  0  0
 15 28  1  0  0  0  0
M  END
>  <Code-name>
058

>  <Compound>
Montadial A

>  <Specie>
Bandarzewia montana

>  <Reference>
COTA et al, 2010

>  <Organism>
Cytotoxic Activity

>  <Smiles>
C/C(/C=O)=C\Cc1cc(C=O)cc(O)c1O

>  <MMFF94 Energy>
30.758

>  <Total Molweight>
220.223

>  <Molweight>
220.223

>  <Monoisotopic Mass>
220.073560

>  <cLogP>
1.785

>  <cLogS>
-1.995

>  <H-Acceptors>
4

>  <H-Donors>
2

>  <Total Surface Area>
175.77

>  <Relative PSA>
0.29743

>  <Polar Surface Area>
74.6

>  <Druglikeness>
-4.9268

>  <Mutagenic>
none

>  <Tumorigenic>
none

>  <Reproductive Effective>
none

>  <Irritant>
high

>  <Nasty Functions>


>  <Shape Index>
0.625

>  <Molecular Flexibility>
0.4823

>  <Molecular Complexity>
0.69203

>  <Fragments>
1

>  <Non-H Atoms>
16

>  <Non-C/H Atoms>
4

>  <Metal-Atoms>
0

>  <Electronegative Atoms>
4

>  <Stereo Centers>
0

>  <Rotatable Bonds>
4

>  <Rings Closures>
1

>  <Small Rings>
1

>  <Aromatic Rings>
1

>  <Aromatic Atoms>
6

>  <sp3-Atoms>
4

>  <Symmetric atoms>
0

>  <Amides>
0

>  <Amines>
0

>  <Alkyl-Amines>
0

>  <Aromatic Amines>
0

>  <Aromatic Nitrogens>
0

>  <Basic Nitrogens>
0

>  <Acidic Oxygens>
0

>  <Stereo Configuration>


> <Gold.Version>
5.8.1

> <Gold.Id.Protein>
ID_2|Prot_COX2_5IKQ_Alig|mol2

> <Gold.Goldscore.Fitness>
53.9846

> <Gold.Goldscore.Internal.Vdw>
-2.7415

> <Gold.Goldscore.Internal.Torsion>
-2.7549

> <Gold.Goldscore.External.Vdw>
37.1335

> <Gold.Goldscore.Internal.HBond>
0.0000

> <Gold.Goldscore.External.HBond>
3.7425

> <Gold.Goldscore.Internal.Correction>
-4.6799

> <Gold.Goldscore.Hbonds>
donor molecule, donor type, donor heavy atom, donor atom, acceptor molecule, acceptor atom, score
      P1  H  5176  5185       L1     8  0.89
      P1  H  7836  7844       L1     1  0.02
      L1  H     8    20       P1   852  0.77
      L1  H    11    23       P1  5176  0.19

> <Gold.Goldscore.Internal.Vdw.Weighted>
-2.7415

> <Gold.Goldscore.Internal.Torsion.Weighted>
-2.7549

> <Gold.Goldscore.External.Vdw.Weighted>
51.0586

> <Gold.Goldscore.Internal.HBond.Weighted>
0.0000

> <Gold.Goldscore.External.HBond.Weighted>
3.7425

> <Gold.Goldscore.Internal.Correction.Weighted>
-4.6799

> <Gold.Protein.RotatedTorsions>
[ 5077 5068 5067 5065 ] final -146.78 input  179.94 | X-H torsion
[ 5157 5152 5151 5148 ] final   59.26 input -179.92 | X-H torsion
[ 5185 5176 5175 5173 ] final   46.19 input -179.99 | X-H torsion
[ 5712 5703 5702 5700 ] final  100.28 input  180.00 | X-H torsion
[ 8036 8031 8030 8027 ] final -166.64 input -179.94 | X-H torsion
[ 2749 2745 2743 2740 ] final  -15.21 input  -60.05 | X-H torsion
[ 1366 1361 1360 1357 ] final   12.12 input  -60.09 | X-H torsion
[ 2556 2551 2550 2547 ] final  -81.93 input   59.97 | X-H torsion

> <Gold.Protein.ActiveResidues>
 PRO86   VAL89   HIS90   LEU93   THR94   ILE112  MET113  TYR115  VAL116  LEU117 
 THR118  SER119  ARG120  SER121  LEU123  ILE124  GLN192  SER194  PHE198  PHE201 
 ALA202  GLN203  PHE205  THR206  PHE209  PHE210  VAL228  ILE341  ILE343  VAL344 
 ILE345  GLU346  ASP347  TYR348  VAL349  GLN350  HIS351  LEU352  SER353  GLY354 
 TYR355  PHE357  LEU359  LYS360  GLU380  PHE381  ASN382  THR383  LEU384  TYR385 
 HIS386  TRP387  LEU390  VAL434  LEU507  ARG513  ALA516  ILE517  PHE518  GLY519 
 GLU520  THR521  MET522  VAL523  GLU524  VAL525  GLY526  ALA527  PRO528  PHE529 
 SER530  LEU531  LYS532  GLY533  LEU534  MET535  COH609 

> <Gold.Protein.RotatedAtoms>
   17.6504    7.5434    2.2335 H   0  0  0  0  0  0  0  0  0  0  0  0  # atno 1366 bound_to 1361
    4.6209   -8.8541    7.8147 H   0  0  0  0  0  0  0  0  0  0  0  0  # atno 2556 bound_to 2551
   -4.0208    0.1176    1.1213 H   0  0  0  0  0  0  0  0  0  0  0  0  # atno 2749 bound_to 2745
    2.1548   -1.9610    3.7605 H   0  0  0  0  0  0  0  0  0  0  0  0  # atno 5077 bound_to 5068
   12.6629   -2.7176    9.1792 H   0  0  0  0  0  0  0  0  0  0  0  0  # atno 5157 bound_to 5152
   15.4417   -1.0040    4.6419 H   0  0  0  0  0  0  0  0  0  0  0  0  # atno 5185 bound_to 5176
    2.9848   -0.6700    2.4461 H   0  0  0  0  0  0  0  0  0  0  0  0  # atno 5712 bound_to 5703
    5.9294    3.8223    3.6035 H   0  0  0  0  0  0  0  0  0  0  0  0  # atno 8036 bound_to 8031
    0.7662   -1.3950    3.8735 LP  0  0  0  0  0  0  0  0  0  0  0  0  # atno 8267 bound_to 5068
    1.1378   -2.9254    4.3055 LP  0  0  0  0  0  0  0  0  0  0  0  0  # atno 8268 bound_to 5068
   11.2283   -2.2961    9.3504 LP  0  0  0  0  0  0  0  0  0  0  0  0  # atno 8279 bound_to 5152
   12.4604   -1.2284    9.2587 LP  0  0  0  0  0  0  0  0  0  0  0  0  # atno 8280 bound_to 5152
   16.7640   -0.3630    4.9573 LP  0  0  0  0  0  0  0  0  0  0  0  0  # atno 8281 bound_to 5176
   15.3498    0.4522    5.0024 LP  0  0  0  0  0  0  0  0  0  0  0  0  # atno 8282 bound_to 5176
    1.5700   -0.8280    2.9277 LP  0  0  0  0  0  0  0  0  0  0  0  0  # atno 8283 bound_to 5703
    2.2192    0.6197    2.5414 LP  0  0  0  0  0  0  0  0  0  0  0  0  # atno 8284 bound_to 5703
    4.6091    4.4090    3.1883 LP  0  0  0  0  0  0  0  0  0  0  0  0  # atno 8309 bound_to 8031
    5.8887    5.3249    3.6246 LP  0  0  0  0  0  0  0  0  0  0  0  0  # atno 8310 bound_to 8031
   -2.7475   -0.6355    0.8477 LP  0  0  0  0  0  0  0  0  0  0  0  0  # atno 8323 bound_to 2745
   -3.6480    0.0418   -0.3343 LP  0  0  0  0  0  0  0  0  0  0  0  0  # atno 8324 bound_to 2745
   18.3773    7.4319    3.5463 LP  0  0  0  0  0  0  0  0  0  0  0  0  # atno 8335 bound_to 1361
   18.7063    6.4719    2.2669 LP  0  0  0  0  0  0  0  0  0  0  0  0  # atno 8336 bound_to 1361
    4.7125   -9.4492    6.4357 LP  0  0  0  0  0  0  0  0  0  0  0  0  # atno 8342 bound_to 2551
    5.2900  -10.2009    7.7654 LP  0  0  0  0  0  0  0  0  0  0  0  0  # atno 8343 bound_to 2551

