
005|LMW3_p|sdf|5|dock3
  -GOLD-   6 62215 33D 1   1.00000     0.00000

 80 83  0  0  0  0  0  0  0  0  1 V2000
    8.3995   -2.5015    3.0786 O   0  0  0  0  0  0  0  0  0  0  0  0
    8.4863   -1.2496    2.3708 C   0  0  2  0  0  0  0  0  0  0  0  0
    9.3235   -3.4711    2.5987 C   0  0  0  0  0  0  0  0  0  0  0  0
    9.8694   -0.7088    2.5604 C   0  0  0  0  0  0  0  0  0  0  0  0
    7.3590   -0.3205    2.9448 C   0  0  1  0  0  0  0  0  0  0  0  0
   10.1438    0.5642    2.8830 C   0  0  0  0  0  0  0  0  0  0  0  0
    7.3023   -0.4923    4.3767 O   0  0  0  0  0  0  0  0  0  0  0  0
    7.6138    1.1881    2.6274 C   0  0  1  0  0  0  0  0  0  0  0  0
    5.9880   -0.7869    2.4065 C   0  0  0  0  0  0  0  0  0  0  0  0
    9.0666    1.6293    3.0819 C   0  0  1  0  0  0  0  0  0  0  0  0
   11.5302    1.0915    3.1590 C   0  0  1  0  0  0  0  0  0  0  0  0
    7.4838    1.3923    1.0838 C   0  0  0  0  0  0  0  0  0  0  0  0
    6.5565    2.0966    3.3132 C   0  0  0  0  0  0  0  0  0  0  0  0
    5.8139   -0.5269    0.9104 C   0  0  2  0  0  0  0  0  0  0  0  0
    9.1890    2.1795    4.5292 C   0  0  0  0  0  0  0  0  0  0  0  0
   11.6759    1.5339    4.6410 C   0  0  2  0  0  0  0  0  0  0  0  0
   12.7782    0.2492    2.9179 C   0  0  0  0  0  0  0  0  0  0  0  0
    6.1492    0.9079    0.5109 C   0  0  0  0  0  0  0  0  0  0  0  0
    4.4751   -0.8252    0.5242 O   0  0  0  0  0  0  0  0  0  0  0  0
   10.6209    2.6311    4.8951 C   0  0  0  0  0  0  0  0  0  0  0  0
   13.1595    2.0221    4.6260 C   0  0  2  0  0  0  0  0  0  0  0  0
   11.4720    0.3697    5.6429 C   0  0  0  0  0  0  0  0  0  0  0  0
   13.8698    0.9748    3.7150 C   0  0  0  0  0  0  0  0  0  0  0  0
   13.9041    2.2119    5.9777 C   0  0  1  0  0  0  0  0  0  0  0  0
   15.3744    2.5840    5.8564 C   0  0  0  0  0  0  0  0  0  0  0  0
   13.2444    3.2447    6.8946 C   0  0  0  0  0  0  0  0  0  0  0  0
   15.9777    3.1839    4.8165 C   0  0  0  0  0  0  0  0  0  0  0  0
   17.4549    3.5173    4.7784 C   0  0  1  0  0  0  0  0  0  0  0  0
   18.2045    2.6298    3.7456 C   0  0  0  0  0  0  0  0  0  0  0  0
   17.6247    5.0227    4.5502 C   0  0  0  0  0  0  0  0  0  0  0  0
   18.2434    1.1631    4.1898 C   0  0  0  0  0  0  0  0  0  0  0  0
   19.6265    3.1016    3.4228 C   0  0  0  0  0  0  0  0  0  0  0  0
    8.3304   -1.3400    1.3161 H   0  0  0  0  0  0  0  0  0  0  0  0
    9.4476   -3.3534    1.5425 H   0  0  0  0  0  0  0  0  0  0  0  0
    8.9511   -4.4524    2.8069 H   0  0  0  0  0  0  0  0  0  0  0  0
   10.2666   -3.3367    3.0858 H   0  0  0  0  0  0  0  0  0  0  0  0
   10.6627   -1.3570    2.4349 H   0  0  0  0  0  0  0  0  0  0  0  0
    8.2018   -0.5890    4.7267 H   0  0  0  0  0  0  0  0  0  0  0  0
    5.2183   -0.2643    2.9352 H   0  0  0  0  0  0  0  0  0  0  0  0
    5.9281   -1.8446    2.5567 H   0  0  0  0  0  0  0  0  0  0  0  0
    9.2403    2.4422    2.4081 H   0  0  0  0  0  0  0  0  0  0  0  0
   11.5384    1.8506    2.4049 H   0  0  0  0  0  0  0  0  0  0  0  0
    8.2734    0.8530    0.6037 H   0  0  0  0  0  0  0  0  0  0  0  0
    7.5397    2.4450    0.9010 H   0  0  0  0  0  0  0  0  0  0  0  0
    6.4997    1.8548    4.3539 H   0  0  0  0  0  0  0  0  0  0  0  0
    5.6012    1.9387    2.8577 H   0  0  0  0  0  0  0  0  0  0  0  0
    6.8403    3.1221    3.2004 H   0  0  0  0  0  0  0  0  0  0  0  0
    6.5051   -1.1660    0.4017 H   0  0  0  0  0  0  0  0  0  0  0  0
    8.8913    1.4102    5.2108 H   0  0  0  0  0  0  0  0  0  0  0  0
    8.5596    3.0424    4.5934 H   0  0  0  0  0  0  0  0  0  0  0  0
   13.0227    0.2196    1.8766 H   0  0  0  0  0  0  0  0  0  0  0  0
   12.6540   -0.7699    3.2197 H   0  0  0  0  0  0  0  0  0  0  0  0
    6.1966    0.9623   -0.5567 H   0  0  0  0  0  0  0  0  0  0  0  0
    5.3822    1.5386    0.9094 H   0  0  0  0  0  0  0  0  0  0  0  0
    4.4170   -0.8560   -0.4436 H   0  0  0  0  0  0  0  0  0  0  0  0
   10.6425    2.8927    5.9324 H   0  0  0  0  0  0  0  0  0  0  0  0
   10.8657    3.4649    4.2709 H   0  0  0  0  0  0  0  0  0  0  0  0
   13.1776    3.0344    4.2801 H   0  0  0  0  0  0  0  0  0  0  0  0
   10.5598   -0.1411    5.4153 H   0  0  0  0  0  0  0  0  0  0  0  0
   11.4236    0.7600    6.6380 H   0  0  0  0  0  0  0  0  0  0  0  0
   12.2919   -0.3136    5.5673 H   0  0  0  0  0  0  0  0  0  0  0  0
   14.5443    1.4683    3.0468 H   0  0  0  0  0  0  0  0  0  0  0  0
   14.4339    0.2814    4.3031 H   0  0  0  0  0  0  0  0  0  0  0  0
   13.8349    1.2342    6.4069 H   0  0  0  0  0  0  0  0  0  0  0  0
   15.9750    2.3495    6.6622 H   0  0  0  0  0  0  0  0  0  0  0  0
   13.0055    4.1217    6.3302 H   0  0  0  0  0  0  0  0  0  0  0  0
   13.9182    3.5019    7.6851 H   0  0  0  0  0  0  0  0  0  0  0  0
   12.3485    2.8326    7.3096 H   0  0  0  0  0  0  0  0  0  0  0  0
   15.4017    3.4318    3.9968 H   0  0  0  0  0  0  0  0  0  0  0  0
   17.9109    3.2885    5.7189 H   0  0  0  0  0  0  0  0  0  0  0  0
   17.6342    2.7242    2.8452 H   0  0  0  0  0  0  0  0  0  0  0  0
   16.8674    5.5528    5.0892 H   0  0  0  0  0  0  0  0  0  0  0  0
   17.5358    5.2374    3.5058 H   0  0  0  0  0  0  0  0  0  0  0  0
   18.5896    5.3293    4.8965 H   0  0  0  0  0  0  0  0  0  0  0  0
   18.6559    0.5636    3.4053 H   0  0  0  0  0  0  0  0  0  0  0  0
   17.2503    0.8302    4.4085 H   0  0  0  0  0  0  0  0  0  0  0  0
   18.8512    1.0717    5.0657 H   0  0  0  0  0  0  0  0  0  0  0  0
   19.5845    4.0528    2.9347 H   0  0  0  0  0  0  0  0  0  0  0  0
   20.1005    2.3907    2.7786 H   0  0  0  0  0  0  0  0  0  0  0  0
   20.1874    3.1905    4.3297 H   0  0  0  0  0  0  0  0  0  0  0  0
  1  2  1  0  0  0  0
  1  3  1  0  0  0  0
  2  4  1  0  0  0  0
  2  5  1  0  0  0  0
  2 33  1  0  0  0  0
  3 34  1  0  0  0  0
  3 35  1  0  0  0  0
  3 36  1  0  0  0  0
  4  6  2  0  0  0  0
  4 37  1  0  0  0  0
  5  7  1  0  0  0  0
  5  8  1  0  0  0  0
  5  9  1  0  0  0  0
  6 10  1  0  0  0  0
  6 11  1  0  0  0  0
  7 38  1  0  0  0  0
  8 12  1  0  0  0  0
  8 13  1  0  0  0  0
  8 10  1  0  0  0  0
  9 14  1  0  0  0  0
  9 39  1  0  0  0  0
  9 40  1  0  0  0  0
 10 15  1  0  0  0  0
 10 41  1  0  0  0  0
 11 16  1  0  0  0  0
 11 17  1  0  0  0  0
 11 42  1  0  0  0  0
 12 18  1  0  0  0  0
 12 43  1  0  0  0  0
 12 44  1  0  0  0  0
 13 45  1  0  0  0  0
 13 46  1  0  0  0  0
 13 47  1  0  0  0  0
 14 19  1  0  0  0  0
 14 18  1  0  0  0  0
 14 48  1  0  0  0  0
 15 20  1  0  0  0  0
 15 49  1  0  0  0  0
 15 50  1  0  0  0  0
 16 21  1  0  0  0  0
 16 22  1  0  0  0  0
 16 20  1  0  0  0  0
 17 23  1  0  0  0  0
 17 51  1  0  0  0  0
 17 52  1  0  0  0  0
 18 53  1  0  0  0  0
 18 54  1  0  0  0  0
 19 55  1  0  0  0  0
 20 56  1  0  0  0  0
 20 57  1  0  0  0  0
 21 24  1  0  0  0  0
 21 23  1  0  0  0  0
 21 58  1  0  0  0  0
 22 59  1  0  0  0  0
 22 60  1  0  0  0  0
 22 61  1  0  0  0  0
 23 62  1  0  0  0  0
 23 63  1  0  0  0  0
 24 25  1  0  0  0  0
 24 26  1  0  0  0  0
 24 64  1  0  0  0  0
 25 27  2  0  0  0  0
 25 65  1  0  0  0  0
 26 66  1  0  0  0  0
 26 67  1  0  0  0  0
 26 68  1  0  0  0  0
 27 28  1  0  0  0  0
 27 69  1  0  0  0  0
 28 29  1  0  0  0  0
 28 30  1  0  0  0  0
 28 70  1  0  0  0  0
 29 31  1  0  0  0  0
 29 32  1  0  0  0  0
 29 71  1  0  0  0  0
 30 72  1  0  0  0  0
 30 73  1  0  0  0  0
 30 74  1  0  0  0  0
 31 75  1  0  0  0  0
 31 76  1  0  0  0  0
 31 77  1  0  0  0  0
 32 78  1  0  0  0  0
 32 79  1  0  0  0  0
 32 80  1  0  0  0  0
M  END
>  <Code-name>
005

>  <Compound>
(22E)-3β,5α-dihydroxyergosta-7, 22-dien-6-one

>  <Specie>
Pleurotus eryngii

>  <Reference>
KIKUCHI et al., 2017

>  <Organism>
Aromatase Inhibitor

>  <Smiles>
CC(C)[C@@H](C)/C=C/[C@@H](C)[C@@H](CC1)[C@@](C)(CC[C@@H]2[C@@](C)(CC[C@@H](C3)O)[C@@]33O)[C@@H]1C2=C[C@H]3OC

>  <MMFF94 Energy>
129.2

>  <Total Molweight>
444.697

>  <Molweight>
444.697

>  <Monoisotopic Mass>
444.360345

>  <cLogP>
5.901

>  <cLogS>
-5.45

>  <H-Acceptors>
3

>  <H-Donors>
2

>  <Total Surface Area>
346.78

>  <Relative PSA>
0.10439

>  <Polar Surface Area>
49.69

>  <Druglikeness>
0.22742

>  <Mutagenic>
none

>  <Tumorigenic>
none

>  <Reproductive Effective>
none

>  <Irritant>
none

>  <Nasty Functions>


>  <Shape Index>
0.5

>  <Molecular Flexibility>
0.2958

>  <Molecular Complexity>
0.98524

>  <Fragments>
1

>  <Non-H Atoms>
32

>  <Non-C/H Atoms>
3

>  <Metal-Atoms>
0

>  <Electronegative Atoms>
3

>  <Stereo Centers>
10

>  <Rotatable Bonds>
5

>  <Rings Closures>
4

>  <Small Rings>
4

>  <Aromatic Rings>
0

>  <Aromatic Atoms>
0

>  <sp3-Atoms>
28

>  <Symmetric atoms>
1

>  <Amides>
0

>  <Amines>
0

>  <Alkyl-Amines>
0

>  <Aromatic Amines>
0

>  <Aromatic Nitrogens>
0

>  <Basic Nitrogens>
0

>  <Acidic Oxygens>
0

>  <Stereo Configuration>
this enantiomer

> <Gold.Version>
5.8.1

> <Gold.Id.Protein>
ID_2|Prot_COX2_5IKQ_Alig|mol2

> <Gold.Goldscore.Fitness>
-26.4044

> <Gold.Goldscore.Internal.Vdw>
-19.5166

> <Gold.Goldscore.Internal.Torsion>
-5.5946

> <Gold.Goldscore.External.Vdw>
-16.7419

> <Gold.Goldscore.Internal.HBond>
0.0000

> <Gold.Goldscore.External.HBond>
0.0000

> <Gold.Goldscore.Internal.Correction>
-21.7270

> <Gold.Goldscore.Internal.Vdw.Weighted>
-19.5166

> <Gold.Goldscore.Internal.Torsion.Weighted>
-5.5946

> <Gold.Goldscore.External.Vdw.Weighted>
-23.0202

> <Gold.Goldscore.Internal.HBond.Weighted>
0.0000

> <Gold.Goldscore.External.HBond.Weighted>
0.0000

> <Gold.Goldscore.Internal.Correction.Weighted>
-21.7270

> <Gold.Protein.RotatedTorsions>
[ 5077 5068 5067 5065 ] final -167.43 input  179.94 | X-H torsion
[ 5157 5152 5151 5148 ] final -173.29 input -179.92 | X-H torsion
[ 5185 5176 5175 5173 ] final  -15.26 input -179.99 | X-H torsion
[ 5712 5703 5702 5700 ] final  163.36 input  180.00 | X-H torsion
[ 8036 8031 8030 8027 ] final   58.73 input -179.94 | X-H torsion
[ 2749 2745 2743 2740 ] final  -56.85 input  -60.05 | X-H torsion
[ 1366 1361 1360 1357 ] final   63.83 input  -60.09 | X-H torsion
[ 2556 2551 2550 2547 ] final  109.58 input   59.97 | X-H torsion

> <Gold.Protein.ActiveResidues>
 PRO86   VAL89   HIS90   LEU93   THR94   ILE112  MET113  TYR115  VAL116  LEU117 
 THR118  SER119  ARG120  SER121  LEU123  ILE124  GLN192  SER194  PHE198  PHE201 
 ALA202  GLN203  PHE205  THR206  PHE209  PHE210  VAL228  ILE341  ILE343  VAL344 
 ILE345  GLU346  ASP347  TYR348  VAL349  GLN350  HIS351  LEU352  SER353  GLY354 
 TYR355  PHE357  LEU359  LYS360  GLU380  PHE381  ASN382  THR383  LEU384  TYR385 
 HIS386  TRP387  LEU390  VAL434  LEU507  ARG513  ALA516  ILE517  PHE518  GLY519 
 GLU520  THR521  MET522  VAL523  GLU524  VAL525  GLY526  ALA527  PRO528  PHE529 
 SER530  LEU531  LYS532  GLY533  LEU534  MET535  COH609 

> <Gold.Protein.RotatedAtoms>
   17.9945    7.0453    1.9041 H   0  0  0  0  0  0  0  0  0  0  0  0  # atno 1366 bound_to 1361
    4.9868  -10.0074    6.8100 H   0  0  0  0  0  0  0  0  0  0  0  0  # atno 2556 bound_to 2551
   -3.5979   -0.1597    1.3653 H   0  0  0  0  0  0  0  0  0  0  0  0  # atno 2749 bound_to 2745
    2.0436   -1.7076    3.7018 H   0  0  0  0  0  0  0  0  0  0  0  0  # atno 5077 bound_to 5068
   12.3090   -1.3453    9.2258 H   0  0  0  0  0  0  0  0  0  0  0  0  # atno 5157 bound_to 5152
   16.2399   -1.0114    4.7466 H   0  0  0  0  0  0  0  0  0  0  0  0  # atno 5185 bound_to 5176
    2.8871    0.1445    2.3640 H   0  0  0  0  0  0  0  0  0  0  0  0  # atno 5712 bound_to 5703
    4.7808    4.6189    3.1998 H   0  0  0  0  0  0  0  0  0  0  0  0  # atno 8036 bound_to 8031
    0.5728   -1.6380    4.0072 LP  0  0  0  0  0  0  0  0  0  0  0  0  # atno 8267 bound_to 5068
    1.4644   -2.9858    4.2420 LP  0  0  0  0  0  0  0  0  0  0  0  0  # atno 8268 bound_to 5068
   12.8524   -2.7486    9.2071 LP  0  0  0  0  0  0  0  0  0  0  0  0  # atno 8279 bound_to 5152
   11.2595   -2.4172    9.3463 LP  0  0  0  0  0  0  0  0  0  0  0  0  # atno 8280 bound_to 5152
   16.2624    0.4437    5.1221 LP  0  0  0  0  0  0  0  0  0  0  0  0  # atno 8281 bound_to 5176
   14.8930   -0.3457    4.7119 LP  0  0  0  0  0  0  0  0  0  0  0  0  # atno 8282 bound_to 5176
    2.4428   -1.2440    2.7291 LP  0  0  0  0  0  0  0  0  0  0  0  0  # atno 8283 bound_to 5703
    1.4636    0.0582    2.8384 LP  0  0  0  0  0  0  0  0  0  0  0  0  # atno 8284 bound_to 5703
    6.0806    5.1918    3.6920 LP  0  0  0  0  0  0  0  0  0  0  0  0  # atno 8309 bound_to 8031
    5.7952    3.5863    3.6052 LP  0  0  0  0  0  0  0  0  0  0  0  0  # atno 8310 bound_to 8031
   -2.7517   -0.5460    0.1829 LP  0  0  0  0  0  0  0  0  0  0  0  0  # atno 8323 bound_to 2745
   -4.1503    0.2844    0.0383 LP  0  0  0  0  0  0  0  0  0  0  0  0  # atno 8324 bound_to 2745
   17.7669    7.8320    3.1663 LP  0  0  0  0  0  0  0  0  0  0  0  0  # atno 8335 bound_to 1361
   18.9051    6.6678    3.0409 LP  0  0  0  0  0  0  0  0  0  0  0  0  # atno 8336 bound_to 1361
    5.1092   -9.6310    8.2617 LP  0  0  0  0  0  0  0  0  0  0  0  0  # atno 8342 bound_to 2551
    4.4554   -8.6392    7.1413 LP  0  0  0  0  0  0  0  0  0  0  0  0  # atno 8343 bound_to 2551

