
062|LMW3_p|sdf|62|dock13
  -GOLD-   6 722 9263D 1   1.00000     0.00000

 54 57  0  0  0  0  0  0  0  0  1 V2000
   14.7583    1.0121    3.7970 O   0  0  0  0  0  0  0  0  0  0  0  0
   13.7828    1.6563    4.1445 C   0  0  0  0  0  0  0  0  0  0  0  0
   13.7368    3.0110    4.2909 O   0  0  0  0  0  0  0  0  0  0  0  0
   12.4495    1.0423    4.4267 C   0  0  1  0  0  0  0  0  0  0  0  0
   12.3886    3.4432    4.5164 C   0  0  1  0  0  0  0  0  0  0  0  0
   11.5456    2.2101    4.7025 C   0  0  2  0  0  0  0  0  0  0  0  0
   11.9551   -0.0846    3.5304 C   0  0  2  0  0  0  0  0  0  0  0  0
   11.8641    1.2561    5.8219 C   0  0  0  0  0  0  0  0  0  0  0  0
   12.3086    4.2558    5.6747 O   0  0  0  0  0  0  0  0  0  0  0  0
   10.1760    2.1946    4.1708 C   0  0  0  0  0  0  0  0  0  0  0  0
   10.6666    0.2249    2.7105 C   0  0  1  0  0  0  0  0  0  0  0  0
   11.7227   -1.4190    4.2714 C   0  0  0  0  0  0  0  0  0  0  0  0
    9.7552    1.2882    3.2715 C   0  0  0  0  0  0  0  0  0  0  0  0
    9.1967    3.2427    4.5809 C   0  0  0  0  0  0  0  0  0  0  0  0
   11.0787    0.7586    1.4476 O   0  0  0  0  0  0  0  0  0  0  0  0
   10.0399   -1.1948    2.5517 C   0  0  1  0  0  0  0  0  0  0  0  0
   10.3122   -1.9113    3.8932 C   0  0  0  0  0  0  0  0  0  0  0  0
    8.1441    3.3953    3.9684 O   0  0  0  0  0  0  0  0  0  0  0  0
    8.6338   -1.2214    2.2460 O   0  0  0  0  0  0  0  0  0  0  0  0
    9.2912   -1.5733    4.9941 C   0  0  0  0  0  0  0  0  0  0  0  0
   10.2957   -3.4366    3.7012 C   0  0  0  0  0  0  0  0  0  0  0  0
    8.2896   -0.8084    1.0031 C   0  0  0  0  0  0  0  0  0  0  0  0
    9.0548   -0.6591    0.0650 O   0  0  0  0  0  0  0  0  0  0  0  0
    6.8398   -0.5340    0.9891 C   0  0  0  0  0  0  0  0  0  0  0  0
    6.1560   -0.4181    2.1380 C   0  0  0  0  0  0  0  0  0  0  0  0
    4.6835   -0.1320    2.2078 C   0  0  0  0  0  0  0  0  0  0  0  0
    4.4191    1.3094    2.6439 C   0  0  0  0  0  0  0  0  0  0  0  0
    5.1181    1.6300    3.9560 C   0  0  0  0  0  0  0  0  0  0  0  0
   12.0452    4.0234    3.6855 H   0  0  0  0  0  0  0  0  0  0  0  0
   12.7748   -0.1781    2.8490 H   0  0  0  0  0  0  0  0  0  0  0  0
   12.4964    1.5660    6.6275 H   0  0  0  0  0  0  0  0  0  0  0  0
   11.2890    0.6651    6.5037 H   0  0  0  0  0  0  0  0  0  0  0  0
   12.7797    3.8250    6.4051 H   0  0  0  0  0  0  0  0  0  0  0  0
   11.7865   -1.2671    5.3287 H   0  0  0  0  0  0  0  0  0  0  0  0
   12.4632   -2.1405    3.9955 H   0  0  0  0  0  0  0  0  0  0  0  0
    8.7739    1.3209    2.9535 H   0  0  0  0  0  0  0  0  0  0  0  0
    9.4072    3.8474    5.3902 H   0  0  0  0  0  0  0  0  0  0  0  0
   11.5010    0.0599    0.9236 H   0  0  0  0  0  0  0  0  0  0  0  0
   10.4859   -1.6731    1.7049 H   0  0  0  0  0  0  0  0  0  0  0  0
    8.3097   -1.8452    4.6659 H   0  0  0  0  0  0  0  0  0  0  0  0
    9.3209   -0.5234    5.1979 H   0  0  0  0  0  0  0  0  0  0  0  0
    9.5330   -2.1163    5.8838 H   0  0  0  0  0  0  0  0  0  0  0  0
   10.4138   -3.9169    4.6501 H   0  0  0  0  0  0  0  0  0  0  0  0
   11.0981   -3.7234    3.0541 H   0  0  0  0  0  0  0  0  0  0  0  0
    9.3637   -3.7312    3.2659 H   0  0  0  0  0  0  0  0  0  0  0  0
    6.3473   -0.4304    0.0881 H   0  0  0  0  0  0  0  0  0  0  0  0
    6.6718   -0.5321    3.0246 H   0  0  0  0  0  0  0  0  0  0  0  0
    4.2317   -0.7982    2.9128 H   0  0  0  0  0  0  0  0  0  0  0  0
    4.2649   -0.2728    1.2331 H   0  0  0  0  0  0  0  0  0  0  0  0
    3.3654    1.4476    2.7681 H   0  0  0  0  0  0  0  0  0  0  0  0
    4.8022    1.9647    1.8898 H   0  0  0  0  0  0  0  0  0  0  0  0
    6.1732    1.6958    3.7912 H   0  0  0  0  0  0  0  0  0  0  0  0
    4.9156    0.8559    4.6664 H   0  0  0  0  0  0  0  0  0  0  0  0
    4.7571    2.5639    4.3334 H   0  0  0  0  0  0  0  0  0  0  0  0
  1  2  2  0  0  0  0
  2  3  1  0  0  0  0
  3  5  1  0  0  0  0
  4  2  1  0  0  0  0
  4  6  1  0  0  0  0
  4  7  1  0  0  0  0
  4  8  1  0  0  0  0
  5  9  1  0  0  0  0
  5  6  1  0  0  0  0
  5 29  1  0  0  0  0
  6 10  1  0  0  0  0
  6  8  1  0  0  0  0
  7 11  1  0  0  0  0
  7 12  1  0  0  0  0
  7 30  1  0  0  0  0
  8 31  1  0  0  0  0
  8 32  1  0  0  0  0
  9 33  1  0  0  0  0
 10 13  2  0  0  0  0
 10 14  1  0  0  0  0
 11 15  1  0  0  0  0
 11 16  1  0  0  0  0
 11 13  1  0  0  0  0
 12 17  1  0  0  0  0
 12 34  1  0  0  0  0
 12 35  1  0  0  0  0
 13 36  1  0  0  0  0
 14 18  2  0  0  0  0
 14 37  1  0  0  0  0
 15 38  1  0  0  0  0
 16 19  1  0  0  0  0
 16 17  1  0  0  0  0
 16 39  1  0  0  0  0
 17 20  1  0  0  0  0
 17 21  1  0  0  0  0
 19 22  1  0  0  0  0
 20 40  1  0  0  0  0
 20 41  1  0  0  0  0
 20 42  1  0  0  0  0
 21 43  1  0  0  0  0
 21 44  1  0  0  0  0
 21 45  1  0  0  0  0
 22 23  2  0  0  0  0
 22 24  1  0  0  0  0
 24 25  2  0  0  0  0
 24 46  1  0  0  0  0
 25 26  1  0  0  0  0
 25 47  1  0  0  0  0
 26 27  1  0  0  0  0
 26 48  1  0  0  0  0
 26 49  1  0  0  0  0
 27 28  1  0  0  0  0
 27 50  1  0  0  0  0
 27 51  1  0  0  0  0
 28 52  1  0  0  0  0
 28 53  1  0  0  0  0
 28 54  1  0  0  0  0
M  END
>  <Code-name>
062

>  <Compound>
Pilatina

>  <Specie>
Flagelloscypha pilatii

>  <Reference>
COTA et al, 2008

>  <Organism>
N/A

>  <Smiles>
CCC/C=C/C(O[C@H](C(C)(C)C[C@@H]1[C@](C2)([C@@]2([C@@H](O)O2)C(C=O)=C3)C2=O)[C@]13O)=O

>  <MMFF94 Energy>
47.648

>  <Total Molweight>
390.430

>  <Molweight>
390.430

>  <Monoisotopic Mass>
390.167855

>  <cLogP>
1.175

>  <cLogS>
-2.933

>  <H-Acceptors>
7

>  <H-Donors>
2

>  <Total Surface Area>
269.41

>  <Relative PSA>
0.31669

>  <Polar Surface Area>
110.13

>  <Druglikeness>
-8.5523

>  <Mutagenic>
high

>  <Tumorigenic>
none

>  <Reproductive Effective>
high

>  <Irritant>
high

>  <Nasty Functions>


>  <Shape Index>
0.5

>  <Molecular Flexibility>
0.24799

>  <Molecular Complexity>
1.0616

>  <Fragments>
1

>  <Non-H Atoms>
28

>  <Non-C/H Atoms>
7

>  <Metal-Atoms>
0

>  <Electronegative Atoms>
7

>  <Stereo Centers>
6

>  <Rotatable Bonds>
6

>  <Rings Closures>
4

>  <Small Rings>
6

>  <Aromatic Rings>
0

>  <Aromatic Atoms>
0

>  <sp3-Atoms>
18

>  <Symmetric atoms>
1

>  <Amides>
0

>  <Amines>
0

>  <Alkyl-Amines>
0

>  <Aromatic Amines>
0

>  <Aromatic Nitrogens>
0

>  <Basic Nitrogens>
0

>  <Acidic Oxygens>
0

>  <Stereo Configuration>
this enantiomer

> <Gold.Version>
5.8.1

> <Gold.Id.Protein>
ID_2|Prot_COX2_5IKQ_Alig|mol2

> <Gold.Goldscore.Fitness>
46.3995

> <Gold.Goldscore.Internal.Vdw>
-7.9381

> <Gold.Goldscore.Internal.Torsion>
-3.1946

> <Gold.Goldscore.External.Vdw>
36.5923

> <Gold.Goldscore.Internal.HBond>
0.0000

> <Gold.Goldscore.External.HBond>
0.7950

> <Gold.Goldscore.Internal.Correction>
-6.4228

> <Gold.Goldscore.Hbonds>
donor molecule, donor type, donor heavy atom, donor atom, acceptor molecule, acceptor atom, score
      P1  H  5176  5185       L1     1  0.06
      P1  H  8031  8036       L1    18  0.34

> <Gold.Goldscore.Internal.Vdw.Weighted>
-7.9381

> <Gold.Goldscore.Internal.Torsion.Weighted>
-3.1946

> <Gold.Goldscore.External.Vdw.Weighted>
50.3144

> <Gold.Goldscore.Internal.HBond.Weighted>
0.0000

> <Gold.Goldscore.External.HBond.Weighted>
0.7950

> <Gold.Goldscore.Internal.Correction.Weighted>
-6.4228

> <Gold.Protein.RotatedTorsions>
[ 5077 5068 5067 5065 ] final  130.09 input  179.94 | X-H torsion
[ 5157 5152 5151 5148 ] final  138.71 input -179.92 | X-H torsion
[ 5185 5176 5175 5173 ] final  175.72 input -179.99 | X-H torsion
[ 5712 5703 5702 5700 ] final  -57.31 input  180.00 | X-H torsion
[ 8036 8031 8030 8027 ] final -127.78 input -179.94 | X-H torsion
[ 2749 2745 2743 2740 ] final   48.95 input  -60.05 | X-H torsion
[ 1366 1361 1360 1357 ] final  -85.55 input  -60.09 | X-H torsion
[ 2556 2551 2550 2547 ] final    8.70 input   59.97 | X-H torsion

> <Gold.Protein.ActiveResidues>
 PRO86   VAL89   HIS90   LEU93   THR94   ILE112  MET113  TYR115  VAL116  LEU117 
 THR118  SER119  ARG120  SER121  LEU123  ILE124  GLN192  SER194  PHE198  PHE201 
 ALA202  GLN203  PHE205  THR206  PHE209  PHE210  VAL228  ILE341  ILE343  VAL344 
 ILE345  GLU346  ASP347  TYR348  VAL349  GLN350  HIS351  LEU352  SER353  GLY354 
 TYR355  PHE357  LEU359  LYS360  GLU380  PHE381  ASN382  THR383  LEU384  TYR385 
 HIS386  TRP387  LEU390  VAL434  LEU507  ARG513  ALA516  ILE517  PHE518  GLY519 
 GLU520  THR521  MET522  VAL523  GLU524  VAL525  GLY526  ALA527  PRO528  PHE529 
 SER530  LEU531  LYS532  GLY533  LEU534  MET535  COH609 

> <Gold.Protein.RotatedAtoms>
   18.1457    7.6059    3.3137 H   0  0  0  0  0  0  0  0  0  0  0  0  # atno 1366 bound_to 1361
    5.1157   -9.8438    8.0108 H   0  0  0  0  0  0  0  0  0  0  0  0  # atno 2556 bound_to 2551
   -4.1148    0.2793    0.3034 H   0  0  0  0  0  0  0  0  0  0  0  0  # atno 2749 bound_to 2745
    1.3202   -1.3282    3.7576 H   0  0  0  0  0  0  0  0  0  0  0  0  # atno 5077 bound_to 5068
   12.8290   -1.7207    9.1771 H   0  0  0  0  0  0  0  0  0  0  0  0  # atno 5157 bound_to 5152
   15.5388    0.3594    5.0468 H   0  0  0  0  0  0  0  0  0  0  0  0  # atno 5185 bound_to 5176
    1.5392   -0.2627    2.8131 H   0  0  0  0  0  0  0  0  0  0  0  0  # atno 5712 bound_to 5703
    6.2249    4.2441    3.7027 H   0  0  0  0  0  0  0  0  0  0  0  0  # atno 8036 bound_to 8031
    0.6639   -2.5661    4.3038 LP  0  0  0  0  0  0  0  0  0  0  0  0  # atno 8267 bound_to 5068
    2.2396   -2.5121    3.8785 LP  0  0  0  0  0  0  0  0  0  0  0  0  # atno 8268 bound_to 5068
   12.1546   -3.0634    9.2625 LP  0  0  0  0  0  0  0  0  0  0  0  0  # atno 8279 bound_to 5152
   11.3353   -1.6535    9.3491 LP  0  0  0  0  0  0  0  0  0  0  0  0  # atno 8280 bound_to 5152
   15.2441   -1.0322    4.5616 LP  0  0  0  0  0  0  0  0  0  0  0  0  # atno 8281 bound_to 5176
   16.7531   -0.5157    4.9119 LP  0  0  0  0  0  0  0  0  0  0  0  0  # atno 8282 bound_to 5176
    2.7900    0.4589    2.3965 LP  0  0  0  0  0  0  0  0  0  0  0  0  # atno 8283 bound_to 5703
    2.7342   -1.1560    2.6321 LP  0  0  0  0  0  0  0  0  0  0  0  0  # atno 8284 bound_to 5703
    4.8438    3.8332    3.2739 LP  0  0  0  0  0  0  0  0  0  0  0  0  # atno 8309 bound_to 8031
    5.2994    5.3945    3.4200 LP  0  0  0  0  0  0  0  0  0  0  0  0  # atno 8310 bound_to 8031
   -3.4367   -0.3217    1.5044 LP  0  0  0  0  0  0  0  0  0  0  0  0  # atno 8323 bound_to 2745
   -2.8462   -0.4657   -0.0113 LP  0  0  0  0  0  0  0  0  0  0  0  0  # atno 8324 bound_to 2745
   18.8574    6.4910    2.5965 LP  0  0  0  0  0  0  0  0  0  0  0  0  # atno 8335 bound_to 1361
   17.6337    7.3380    1.9245 LP  0  0  0  0  0  0  0  0  0  0  0  0  # atno 8336 bound_to 1361
    4.4883   -8.5974    7.4477 LP  0  0  0  0  0  0  0  0  0  0  0  0  # atno 8342 bound_to 2551
    4.9221   -9.8685    6.5188 LP  0  0  0  0  0  0  0  0  0  0  0  0  # atno 8343 bound_to 2551

