
064|LMW3_p|sdf|64|dock3
  -GOLD-   6 722 9363D 1   1.00000     0.00000

 42 43  0  0  0  0  0  0  0  0  1 V2000
    7.6216    1.5620    0.8827 O   0  0  0  0  0  0  0  0  0  0  0  0
    7.8734    0.5612    1.8808 C   0  0  2  0  0  0  0  0  0  0  0  0
    8.9341    1.0834    2.8675 C   0  0  2  0  0  0  0  0  0  0  0  0
    8.4384   -0.6628    1.1243 C   0  0  0  0  0  0  0  0  0  0  0  0
    6.5248    0.2387    2.5379 C   0  0  0  0  0  0  0  0  0  0  0  0
    9.3236    0.0246    3.9445 C   0  0  2  0  0  0  0  0  0  0  0  0
    8.5935    2.4058    3.5746 C   0  0  0  0  0  0  0  0  0  0  0  0
    9.6305   -1.3488    1.8121 C   0  0  0  0  0  0  0  0  0  0  0  0
   10.4930    0.5795    4.7399 C   0  0  0  0  0  0  0  0  0  0  0  0
    9.4416   -1.4238    3.3358 C   0  0  1  0  0  0  0  0  0  0  0  0
    9.8332    2.9574    4.2911 C   0  0  0  0  0  0  0  0  0  0  0  0
   10.7179    1.8981    4.9049 C   0  0  0  0  0  0  0  0  0  0  0  0
   10.4288   -2.3899    4.0607 C   0  0  0  0  0  0  0  0  0  0  0  0
   11.8751    2.4112    5.7147 C   0  0  0  0  0  0  0  0  0  0  0  0
   11.8982   -2.1599    3.6783 C   0  0  0  0  0  0  0  0  0  0  0  0
   10.0914   -3.8572    3.7478 C   0  0  0  0  0  0  0  0  0  0  0  0
    6.9315    1.2484    0.2774 H   0  0  0  0  0  0  0  0  0  0  0  0
    9.7666    1.2824    2.2254 H   0  0  0  0  0  0  0  0  0  0  0  0
    8.7543   -0.3387    0.1547 H   0  0  0  0  0  0  0  0  0  0  0  0
    7.6513   -1.3869    1.0903 H   0  0  0  0  0  0  0  0  0  0  0  0
    5.8624   -0.1767    1.8074 H   0  0  0  0  0  0  0  0  0  0  0  0
    6.0987    1.1356    2.9365 H   0  0  0  0  0  0  0  0  0  0  0  0
    6.6727   -0.4677    3.3279 H   0  0  0  0  0  0  0  0  0  0  0  0
    8.5493   -0.1379    4.6648 H   0  0  0  0  0  0  0  0  0  0  0  0
    7.8180    2.2339    4.2916 H   0  0  0  0  0  0  0  0  0  0  0  0
    8.2656    3.1173    2.8458 H   0  0  0  0  0  0  0  0  0  0  0  0
   10.5201   -0.7933    1.5998 H   0  0  0  0  0  0  0  0  0  0  0  0
    9.7034   -2.3477    1.4354 H   0  0  0  0  0  0  0  0  0  0  0  0
   11.1487   -0.0873    5.1763 H   0  0  0  0  0  0  0  0  0  0  0  0
    8.5048   -1.9035    3.5286 H   0  0  0  0  0  0  0  0  0  0  0  0
    9.5059    3.6136    5.0704 H   0  0  0  0  0  0  0  0  0  0  0  0
   10.4208    3.4553    3.5483 H   0  0  0  0  0  0  0  0  0  0  0  0
   10.3100   -2.1795    5.1030 H   0  0  0  0  0  0  0  0  0  0  0  0
   11.5070    2.9923    6.5343 H   0  0  0  0  0  0  0  0  0  0  0  0
   12.4999    3.0216    5.0968 H   0  0  0  0  0  0  0  0  0  0  0  0
   12.4423    1.5849    6.0895 H   0  0  0  0  0  0  0  0  0  0  0  0
   12.0458   -1.1288    3.4333 H   0  0  0  0  0  0  0  0  0  0  0  0
   12.1456   -2.7665    2.8323 H   0  0  0  0  0  0  0  0  0  0  0  0
   12.5269   -2.4241    4.5028 H   0  0  0  0  0  0  0  0  0  0  0  0
    9.0850   -4.0633    4.0470 H   0  0  0  0  0  0  0  0  0  0  0  0
   10.7607   -4.4988    4.2820 H   0  0  0  0  0  0  0  0  0  0  0  0
   10.1939   -4.0306    2.6969 H   0  0  0  0  0  0  0  0  0  0  0  0
  1 17  1  0  0  0  0
  2  1  1  0  0  0  0
  2  3  1  0  0  0  0
  2  4  1  0  0  0  0
  2  5  1  0  0  0  0
  3  6  1  0  0  0  0
  3  7  1  0  0  0  0
  3 18  1  0  0  0  0
  4  8  1  0  0  0  0
  4 19  1  0  0  0  0
  4 20  1  0  0  0  0
  5 21  1  0  0  0  0
  5 22  1  0  0  0  0
  5 23  1  0  0  0  0
  6  9  1  0  0  0  0
  6 10  1  0  0  0  0
  6 24  1  0  0  0  0
  7 11  1  0  0  0  0
  7 25  1  0  0  0  0
  7 26  1  0  0  0  0
  8 10  1  0  0  0  0
  8 27  1  0  0  0  0
  8 28  1  0  0  0  0
  9 12  2  0  0  0  0
  9 29  1  0  0  0  0
 10 13  1  0  0  0  0
 10 30  1  0  0  0  0
 11 12  1  0  0  0  0
 11 31  1  0  0  0  0
 11 32  1  0  0  0  0
 12 14  1  0  0  0  0
 13 15  1  0  0  0  0
 13 16  1  0  0  0  0
 13 33  1  0  0  0  0
 14 34  1  0  0  0  0
 14 35  1  0  0  0  0
 14 36  1  0  0  0  0
 15 37  1  0  0  0  0
 15 38  1  0  0  0  0
 15 39  1  0  0  0  0
 16 40  1  0  0  0  0
 16 41  1  0  0  0  0
 16 42  1  0  0  0  0
M  END
>  <Code-name>
064

>  <Compound>
Î±-cadinol

>  <Specie>
Lignosus rhinocerotis

>  <Reference>
YAP et al., 2017

>  <Organism>
Cytotoxic Activity

>  <Smiles>
CC(C)[C@H](CC1)[C@H]2C=C(C)CC[C@@H]2[C@@]1(C)O

>  <MMFF94 Energy>
53.347

>  <Total Molweight>
222.370

>  <Molweight>
222.370

>  <Monoisotopic Mass>
222.198365

>  <cLogP>
3.5341

>  <cLogS>
-3.292

>  <H-Acceptors>
1

>  <H-Donors>
1

>  <Total Surface Area>
182.05

>  <Relative PSA>
0.071958

>  <Polar Surface Area>
20.23

>  <Druglikeness>
-4.2367

>  <Mutagenic>
none

>  <Tumorigenic>
none

>  <Reproductive Effective>
none

>  <Irritant>
none

>  <Nasty Functions>


>  <Shape Index>
0.4375

>  <Molecular Flexibility>
0.30073

>  <Molecular Complexity>
0.80135

>  <Fragments>
1

>  <Non-H Atoms>
16

>  <Non-C/H Atoms>
1

>  <Metal-Atoms>
0

>  <Electronegative Atoms>
1

>  <Stereo Centers>
4

>  <Rotatable Bonds>
1

>  <Rings Closures>
2

>  <Small Rings>
2

>  <Aromatic Rings>
0

>  <Aromatic Atoms>
0

>  <sp3-Atoms>
14

>  <Symmetric atoms>
1

>  <Amides>
0

>  <Amines>
0

>  <Alkyl-Amines>
0

>  <Aromatic Amines>
0

>  <Aromatic Nitrogens>
0

>  <Basic Nitrogens>
0

>  <Acidic Oxygens>
0

>  <Stereo Configuration>
this enantiomer

> <Gold.Version>
5.8.1

> <Gold.Id.Protein>
ID_2|Prot_COX2_5IKQ_Alig|mol2

> <Gold.Goldscore.Fitness>
41.5987

> <Gold.Goldscore.Internal.Vdw>
-9.1630

> <Gold.Goldscore.Internal.Torsion>
-1.9650

> <Gold.Goldscore.External.Vdw>
31.2231

> <Gold.Goldscore.Internal.HBond>
0.0000

> <Gold.Goldscore.External.HBond>
0.0000

> <Gold.Goldscore.Internal.Correction>
-9.7949

> <Gold.Goldscore.Internal.Vdw.Weighted>
-9.1630

> <Gold.Goldscore.Internal.Torsion.Weighted>
-1.9650

> <Gold.Goldscore.External.Vdw.Weighted>
42.9317

> <Gold.Goldscore.Internal.HBond.Weighted>
0.0000

> <Gold.Goldscore.External.HBond.Weighted>
0.0000

> <Gold.Goldscore.Internal.Correction.Weighted>
-9.7949

> <Gold.Protein.RotatedTorsions>
[ 5077 5068 5067 5065 ] final  -34.92 input  179.94 | X-H torsion
[ 5157 5152 5151 5148 ] final -124.12 input -179.92 | X-H torsion
[ 5185 5176 5175 5173 ] final  100.40 input -179.99 | X-H torsion
[ 5712 5703 5702 5700 ] final  151.76 input  180.00 | X-H torsion
[ 8036 8031 8030 8027 ] final  169.19 input -179.94 | X-H torsion
[ 2749 2745 2743 2740 ] final   98.99 input  -60.05 | X-H torsion
[ 1366 1361 1360 1357 ] final -143.02 input  -60.09 | X-H torsion
[ 2556 2551 2550 2547 ] final  -54.51 input   59.97 | X-H torsion

> <Gold.Protein.ActiveResidues>
 PRO86   VAL89   HIS90   LEU93   THR94   ILE112  MET113  TYR115  VAL116  LEU117 
 THR118  SER119  ARG120  SER121  LEU123  ILE124  GLN192  SER194  PHE198  PHE201 
 ALA202  GLN203  PHE205  THR206  PHE209  PHE210  VAL228  ILE341  ILE343  VAL344 
 ILE345  GLU346  ASP347  TYR348  VAL349  GLN350  HIS351  LEU352  SER353  GLY354 
 TYR355  PHE357  LEU359  LYS360  GLU380  PHE381  ASN382  THR383  LEU384  TYR385 
 HIS386  TRP387  LEU390  VAL434  LEU507  ARG513  ALA516  ILE517  PHE518  GLY519 
 GLU520  THR521  MET522  VAL523  GLU524  VAL525  GLY526  ALA527  PRO528  PHE529 
 SER530  LEU531  LYS532  GLY533  LEU534  MET535  COH609 

> <Gold.Protein.RotatedAtoms>
   18.6825    7.0691    3.2789 H   0  0  0  0  0  0  0  0  0  0  0  0  # atno 1366 bound_to 1361
    4.7735   -9.0911    8.0613 H   0  0  0  0  0  0  0  0  0  0  0  0  # atno 2556 bound_to 2551
   -3.6733    0.0837   -0.1583 H   0  0  0  0  0  0  0  0  0  0  0  0  # atno 2749 bound_to 2745
    1.2984   -2.8060    4.2730 H   0  0  0  0  0  0  0  0  0  0  0  0  # atno 5077 bound_to 5068
   11.6698   -1.4919    9.2783 H   0  0  0  0  0  0  0  0  0  0  0  0  # atno 5157 bound_to 5152
   15.0463   -0.4160    4.7581 H   0  0  0  0  0  0  0  0  0  0  0  0  # atno 5185 bound_to 5176
    2.9700    0.0087    2.3582 H   0  0  0  0  0  0  0  0  0  0  0  0  # atno 5712 bound_to 5703
    5.6399    3.6984    3.5042 H   0  0  0  0  0  0  0  0  0  0  0  0  # atno 8036 bound_to 8031
    2.2497   -1.8283    3.6401 LP  0  0  0  0  0  0  0  0  0  0  0  0  # atno 8267 bound_to 5068
    0.6799   -1.4801    3.9252 LP  0  0  0  0  0  0  0  0  0  0  0  0  # atno 8268 bound_to 5068
   13.0845   -1.9987    9.1964 LP  0  0  0  0  0  0  0  0  0  0  0  0  # atno 8279 bound_to 5152
   11.7919   -2.9918    9.2942 LP  0  0  0  0  0  0  0  0  0  0  0  0  # atno 8280 bound_to 5152
   16.3876   -1.0913    4.6976 LP  0  0  0  0  0  0  0  0  0  0  0  0  # atno 8281 bound_to 5176
   16.2009    0.4743    5.1227 LP  0  0  0  0  0  0  0  0  0  0  0  0  # atno 8282 bound_to 5176
    2.2599   -1.2460    2.7828 LP  0  0  0  0  0  0  0  0  0  0  0  0  # atno 8283 bound_to 5703
    1.5470    0.2232    2.7916 LP  0  0  0  0  0  0  0  0  0  0  0  0  # atno 8284 bound_to 5703
    4.6623    4.8002    3.2038 LP  0  0  0  0  0  0  0  0  0  0  0  0  # atno 8309 bound_to 8031
    6.1828    5.0822    3.7282 LP  0  0  0  0  0  0  0  0  0  0  0  0  # atno 8310 bound_to 8031
   -4.0884    0.0848    1.2878 LP  0  0  0  0  0  0  0  0  0  0  0  0  # atno 8323 bound_to 2745
   -2.7232   -0.6379    0.7582 LP  0  0  0  0  0  0  0  0  0  0  0  0  # atno 8324 bound_to 2745
   18.3240    6.6476    1.8797 LP  0  0  0  0  0  0  0  0  0  0  0  0  # atno 8335 bound_to 1361
   17.5250    7.8236    2.6830 LP  0  0  0  0  0  0  0  0  0  0  0  0  # atno 8336 bound_to 1361
    4.5523   -9.0551    6.5734 LP  0  0  0  0  0  0  0  0  0  0  0  0  # atno 8342 bound_to 2551
    5.2676  -10.3114    7.3327 LP  0  0  0  0  0  0  0  0  0  0  0  0  # atno 8343 bound_to 2551

