
065|LMW3_p|sdf|65|dock2
  -GOLD-   6 722 9363D 1   1.00000     0.00000

 30 32  0  0  0  0  0  0  0  0  1 V2000
    7.3883    0.4565    4.1399 O   0  0  0  0  0  0  0  0  0  0  0  0
    7.9852   -0.3283    3.4164 C   0  0  0  0  0  0  0  0  0  0  0  0
    7.5689   -0.6948    2.0450 C   0  0  0  0  0  0  0  0  0  0  0  0
    9.2104   -0.9715    3.9243 C   0  0  0  0  0  0  0  0  0  0  0  0
    6.4289   -0.1779    1.4261 C   0  0  0  0  0  0  0  0  0  0  0  0
    8.3665   -1.6082    1.3408 C   0  0  0  0  0  0  0  0  0  0  0  0
    9.8791   -1.8363    3.1511 C   0  0  0  0  0  0  0  0  0  0  0  0
    5.5969    0.7155    2.0395 O   0  0  0  0  0  0  0  0  0  0  0  0
    6.1063   -0.5764    0.1292 C   0  0  0  0  0  0  0  0  0  0  0  0
    9.5070   -2.1713    1.8622 O   0  0  0  0  0  0  0  0  0  0  0  0
    8.0383   -2.0063    0.0372 C   0  0  0  0  0  0  0  0  0  0  0  0
   11.1131   -2.4978    3.6163 C   0  0  0  0  0  0  0  0  0  0  0  0
    4.9828   -0.0578   -0.4610 O   0  0  0  0  0  0  0  0  0  0  0  0
    6.9020   -1.4832   -0.5621 C   0  0  0  0  0  0  0  0  0  0  0  0
   12.1641   -1.7316    4.1427 C   0  0  0  0  0  0  0  0  0  0  0  0
   11.2792   -3.8884    3.5236 C   0  0  0  0  0  0  0  0  0  0  0  0
    6.5222   -1.8272   -1.8283 O   0  0  0  0  0  0  0  0  0  0  0  0
   13.3437   -2.3405    4.5792 C   0  0  0  0  0  0  0  0  0  0  0  0
   12.4595   -4.4967    3.9596 C   0  0  0  0  0  0  0  0  0  0  0  0
   13.4898   -3.7227    4.4887 C   0  0  0  0  0  0  0  0  0  0  0  0
    9.5521   -0.7558    4.8739 H   0  0  0  0  0  0  0  0  0  0  0  0
    5.2045    1.4070    1.5437 H   0  0  0  0  0  0  0  0  0  0  0  0
    8.6341   -2.6796   -0.4697 H   0  0  0  0  0  0  0  0  0  0  0  0
    4.5943   -0.4945   -1.1933 H   0  0  0  0  0  0  0  0  0  0  0  0
   12.0648   -0.7065    4.2081 H   0  0  0  0  0  0  0  0  0  0  0  0
   10.5217   -4.4678    3.1293 H   0  0  0  0  0  0  0  0  0  0  0  0
    7.1575   -1.8564   -2.5163 H   0  0  0  0  0  0  0  0  0  0  0  0
   14.1070   -1.7657    4.9691 H   0  0  0  0  0  0  0  0  0  0  0  0
   12.5678   -5.5206    3.8895 H   0  0  0  0  0  0  0  0  0  0  0  0
   14.3600   -4.1727    4.8130 H   0  0  0  0  0  0  0  0  0  0  0  0
  1  2  2  0  0  0  0
  2  3  1  0  0  0  0
  2  4  1  0  0  0  0
  3  5  2  0  0  0  0
  3  6  1  0  0  0  0
  4  7  2  0  0  0  0
  4 21  1  0  0  0  0
  5  8  1  0  0  0  0
  5  9  1  0  0  0  0
  6 10  1  0  0  0  0
  6 11  2  0  0  0  0
  7 12  1  0  0  0  0
  7 10  1  0  0  0  0
  8 22  1  0  0  0  0
  9 13  1  0  0  0  0
  9 14  2  0  0  0  0
 11 14  1  0  0  0  0
 11 23  1  0  0  0  0
 12 15  2  0  0  0  0
 12 16  1  0  0  0  0
 13 24  1  0  0  0  0
 14 17  1  0  0  0  0
 15 18  1  0  0  0  0
 15 25  1  0  0  0  0
 16 19  2  0  0  0  0
 16 26  1  0  0  0  0
 17 27  1  0  0  0  0
 18 20  2  0  0  0  0
 18 28  1  0  0  0  0
 19 20  1  0  0  0  0
 19 29  1  0  0  0  0
 20 30  1  0  0  0  0
M  END
>  <Code-name>
065

>  <Compound>
Baicalein

>  <Specie>
Phellinus baummi

>  <Reference>
ZHANG et al., 2017

>  <Organism>
Antitumoral Activity

>  <Smiles>
Oc(cc(c1c2O)OC(c3ccccc3)=CC1=O)c2O

>  <MMFF94 Energy>
47.423

>  <Total Molweight>
270.239

>  <Molweight>
270.239

>  <Monoisotopic Mass>
270.052825

>  <cLogP>
2.3357

>  <cLogS>
-2.856

>  <H-Acceptors>
5

>  <H-Donors>
3

>  <Total Surface Area>
191.03

>  <Relative PSA>
0.32634

>  <Polar Surface Area>
86.99

>  <Druglikeness>
0.28194

>  <Mutagenic>
none

>  <Tumorigenic>
none

>  <Reproductive Effective>
none

>  <Irritant>
none

>  <Nasty Functions>


>  <Shape Index>
0.55

>  <Molecular Flexibility>
0.23316

>  <Molecular Complexity>
0.83396

>  <Fragments>
1

>  <Non-H Atoms>
20

>  <Non-C/H Atoms>
5

>  <Metal-Atoms>
0

>  <Electronegative Atoms>
5

>  <Stereo Centers>
0

>  <Rotatable Bonds>
1

>  <Rings Closures>
3

>  <Small Rings>
3

>  <Aromatic Rings>
2

>  <Aromatic Atoms>
12

>  <sp3-Atoms>
4

>  <Symmetric atoms>
2

>  <Amides>
0

>  <Amines>
0

>  <Alkyl-Amines>
0

>  <Aromatic Amines>
0

>  <Aromatic Nitrogens>
0

>  <Basic Nitrogens>
0

>  <Acidic Oxygens>
0

>  <Stereo Configuration>


> <Gold.Version>
5.8.1

> <Gold.Id.Protein>
ID_2|Prot_COX2_5IKQ_Alig|mol2

> <Gold.Goldscore.Fitness>
56.5486

> <Gold.Goldscore.Internal.Vdw>
-0.1147

> <Gold.Goldscore.Internal.Torsion>
-6.2831

> <Gold.Goldscore.External.Vdw>
41.2943

> <Gold.Goldscore.Internal.HBond>
0.0000

> <Gold.Goldscore.External.HBond>
1.4028

> <Gold.Goldscore.Internal.Correction>
-4.7639

> <Gold.Goldscore.Hbonds>
donor molecule, donor type, donor heavy atom, donor atom, acceptor molecule, acceptor atom, score
      P1  H  5703  5712       L1     8  0.68
      L1  H    17    27       P1  7914  0.02

> <Gold.Goldscore.Internal.Vdw.Weighted>
-0.1147

> <Gold.Goldscore.Internal.Torsion.Weighted>
-6.2831

> <Gold.Goldscore.External.Vdw.Weighted>
56.7797

> <Gold.Goldscore.Internal.HBond.Weighted>
0.0000

> <Gold.Goldscore.External.HBond.Weighted>
1.4028

> <Gold.Goldscore.Internal.Correction.Weighted>
-4.7639

> <Gold.Protein.RotatedTorsions>
[ 5077 5068 5067 5065 ] final  137.16 input  179.94 | X-H torsion
[ 5157 5152 5151 5148 ] final   96.72 input -179.92 | X-H torsion
[ 5185 5176 5175 5173 ] final  -51.95 input -179.99 | X-H torsion
[ 5712 5703 5702 5700 ] final  142.91 input  180.00 | X-H torsion
[ 8036 8031 8030 8027 ] final  172.97 input -179.94 | X-H torsion
[ 2749 2745 2743 2740 ] final  139.30 input  -60.05 | X-H torsion
[ 1366 1361 1360 1357 ] final -110.01 input  -60.09 | X-H torsion
[ 2556 2551 2550 2547 ] final   -9.60 input   59.97 | X-H torsion

> <Gold.Protein.ActiveResidues>
 PRO86   VAL89   HIS90   LEU93   THR94   ILE112  MET113  TYR115  VAL116  LEU117 
 THR118  SER119  ARG120  SER121  LEU123  ILE124  GLN192  SER194  PHE198  PHE201 
 ALA202  GLN203  PHE205  THR206  PHE209  PHE210  VAL228  ILE341  ILE343  VAL344 
 ILE345  GLU346  ASP347  TYR348  VAL349  GLN350  HIS351  LEU352  SER353  GLY354 
 TYR355  PHE357  LEU359  LYS360  GLU380  PHE381  ASN382  THR383  LEU384  TYR385 
 HIS386  TRP387  LEU390  VAL434  LEU507  ARG513  ALA516  ILE517  PHE518  GLY519 
 GLU520  THR521  MET522  VAL523  GLU524  VAL525  GLY526  ALA527  PRO528  PHE529 
 SER530  LEU531  LYS532  GLY533  LEU534  MET535  COH609 

> <Gold.Protein.RotatedAtoms>
   18.3982    7.3991    3.3884 H   0  0  0  0  0  0  0  0  0  0  0  0  # atno 1366 bound_to 1361
    5.0356   -9.6319    8.1196 H   0  0  0  0  0  0  0  0  0  0  0  0  # atno 2556 bound_to 2551
   -3.2031   -0.1905   -0.1478 H   0  0  0  0  0  0  0  0  0  0  0  0  # atno 2749 bound_to 2745
    1.4146   -1.3307    3.7341 H   0  0  0  0  0  0  0  0  0  0  0  0  # atno 5077 bound_to 5068
   12.9196   -2.2798    9.1627 H   0  0  0  0  0  0  0  0  0  0  0  0  # atno 5157 bound_to 5152
   16.5521   -0.6540    4.8911 H   0  0  0  0  0  0  0  0  0  0  0  0  # atno 5185 bound_to 5176
    3.0149   -0.1043    2.3605 H   0  0  0  0  0  0  0  0  0  0  0  0  # atno 5712 bound_to 5703
    5.6880    3.7091    3.5207 H   0  0  0  0  0  0  0  0  0  0  0  0  # atno 8036 bound_to 8031
    0.6020   -2.4692    4.2864 LP  0  0  0  0  0  0  0  0  0  0  0  0  # atno 8267 bound_to 5068
    2.1884   -2.6060    3.9241 LP  0  0  0  0  0  0  0  0  0  0  0  0  # atno 8268 bound_to 5068
   11.5249   -2.8235    9.3189 LP  0  0  0  0  0  0  0  0  0  0  0  0  # atno 8279 bound_to 5152
   11.8567   -1.2246    9.3100 LP  0  0  0  0  0  0  0  0  0  0  0  0  # atno 8280 bound_to 5152
   15.6810    0.5565    5.0767 LP  0  0  0  0  0  0  0  0  0  0  0  0  # atno 8281 bound_to 5176
   15.0996   -0.8876    4.5838 LP  0  0  0  0  0  0  0  0  0  0  0  0  # atno 8282 bound_to 5176
    2.1212   -1.2218    2.8201 LP  0  0  0  0  0  0  0  0  0  0  0  0  # atno 8283 bound_to 5703
    1.6318    0.3346    2.7517 LP  0  0  0  0  0  0  0  0  0  0  0  0  # atno 8284 bound_to 5703
    4.6437    4.7411    3.1978 LP  0  0  0  0  0  0  0  0  0  0  0  0  # atno 8309 bound_to 8031
    6.1436    5.1285    3.7143 LP  0  0  0  0  0  0  0  0  0  0  0  0  # atno 8310 bound_to 8031
   -4.3288    0.2983    0.7225 LP  0  0  0  0  0  0  0  0  0  0  0  0  # atno 8323 bound_to 2745
   -3.0459   -0.5231    1.3110 LP  0  0  0  0  0  0  0  0  0  0  0  0  # atno 8324 bound_to 2745
   18.6860    6.4758    2.2357 LP  0  0  0  0  0  0  0  0  0  0  0  0  # atno 8335 bound_to 1361
   17.5030    7.6007    2.1960 LP  0  0  0  0  0  0  0  0  0  0  0  0  # atno 8336 bound_to 1361
    4.4558   -8.6361    7.1519 LP  0  0  0  0  0  0  0  0  0  0  0  0  # atno 8342 bound_to 2551
    5.0505  -10.0833    6.6843 LP  0  0  0  0  0  0  0  0  0  0  0  0  # atno 8343 bound_to 2551

