
066|LMW3_p|sdf|66|dock6
  -GOLD-   6 722 9373D 1   1.00000     0.00000

 30 32  0  0  0  0  0  0  0  0  1 V2000
    8.5773    0.4824    4.0921 O   0  0  0  0  0  0  0  0  0  0  0  0
    8.7339   -0.5465    3.4436 C   0  0  0  0  0  0  0  0  0  0  0  0
    8.0071   -0.7637    2.1897 C   0  0  0  0  0  0  0  0  0  0  0  0
    9.6480   -1.6093    3.8819 C   0  0  0  0  0  0  0  0  0  0  0  0
    7.1153    0.1882    1.6901 C   0  0  0  0  0  0  0  0  0  0  0  0
    8.2263   -1.9550    1.4942 C   0  0  0  0  0  0  0  0  0  0  0  0
    9.7679   -2.7140    3.1306 C   0  0  0  0  0  0  0  0  0  0  0  0
    6.8460    1.3807    2.3121 O   0  0  0  0  0  0  0  0  0  0  0  0
    6.4514   -0.0653    0.4955 C   0  0  0  0  0  0  0  0  0  0  0  0
    9.0918   -2.9242    1.9378 O   0  0  0  0  0  0  0  0  0  0  0  0
    7.5560   -2.2041    0.2939 C   0  0  0  0  0  0  0  0  0  0  0  0
   10.6770   -3.8129    3.5104 C   0  0  0  0  0  0  0  0  0  0  0  0
    5.5720    0.8490   -0.0186 O   0  0  0  0  0  0  0  0  0  0  0  0
    6.6708   -1.2521   -0.1959 C   0  0  0  0  0  0  0  0  0  0  0  0
   10.2470   -5.1486    3.5313 C   0  0  0  0  0  0  0  0  0  0  0  0
   12.0131   -3.5353    3.8368 C   0  0  0  0  0  0  0  0  0  0  0  0
    6.0139   -1.4900   -1.3678 O   0  0  0  0  0  0  0  0  0  0  0  0
   11.1259   -6.1760    3.8851 C   0  0  0  0  0  0  0  0  0  0  0  0
   12.8912   -4.5627    4.1909 C   0  0  0  0  0  0  0  0  0  0  0  0
   12.4464   -5.8822    4.2167 C   0  0  0  0  0  0  0  0  0  0  0  0
   10.1897   -1.5076    4.7545 H   0  0  0  0  0  0  0  0  0  0  0  0
    7.5340    2.0008    2.4544 H   0  0  0  0  0  0  0  0  0  0  0  0
    7.7162   -3.0835   -0.2218 H   0  0  0  0  0  0  0  0  0  0  0  0
    5.3241    1.5970    0.4883 H   0  0  0  0  0  0  0  0  0  0  0  0
    9.2711   -5.3746    3.2828 H   0  0  0  0  0  0  0  0  0  0  0  0
   12.3513   -2.5606    3.8150 H   0  0  0  0  0  0  0  0  0  0  0  0
    6.2868   -2.1934   -1.9235 H   0  0  0  0  0  0  0  0  0  0  0  0
   10.7961   -7.1538    3.9006 H   0  0  0  0  0  0  0  0  0  0  0  0
   13.8701   -4.3438    4.4335 H   0  0  0  0  0  0  0  0  0  0  0  0
   13.0940   -6.6409    4.4812 H   0  0  0  0  0  0  0  0  0  0  0  0
  1  2  2  0  0  0  0
  2  3  1  0  0  0  0
  2  4  1  0  0  0  0
  3  5  2  0  0  0  0
  3  6  1  0  0  0  0
  4  7  2  0  0  0  0
  4 21  1  0  0  0  0
  5  8  1  0  0  0  0
  5  9  1  0  0  0  0
  6 10  1  0  0  0  0
  6 11  2  0  0  0  0
  7 12  1  0  0  0  0
  7 10  1  0  0  0  0
  8 22  1  0  0  0  0
  9 13  1  0  0  0  0
  9 14  2  0  0  0  0
 11 14  1  0  0  0  0
 11 23  1  0  0  0  0
 12 15  2  0  0  0  0
 12 16  1  0  0  0  0
 13 24  1  0  0  0  0
 14 17  1  0  0  0  0
 15 18  1  0  0  0  0
 15 25  1  0  0  0  0
 16 19  2  0  0  0  0
 16 26  1  0  0  0  0
 17 27  1  0  0  0  0
 18 20  2  0  0  0  0
 18 28  1  0  0  0  0
 19 20  1  0  0  0  0
 19 29  1  0  0  0  0
 20 30  1  0  0  0  0
M  END
>  <Code-name>
066

>  <Compound>
Fornecine A

>  <Specie>
Pyroformes demidoffi

>  <Reference>
COTA et al, 2008

>  <Organism>
Cytotoxic Activity

>  <Smiles>
Oc(cc(c1c2O)OC(c3ccccc3)=CC1=O)c2O

>  <MMFF94 Energy>
34.643

>  <Total Molweight>
270.239

>  <Molweight>
270.239

>  <Monoisotopic Mass>
270.052825

>  <cLogP>
2.3357

>  <cLogS>
-2.856

>  <H-Acceptors>
5

>  <H-Donors>
3

>  <Total Surface Area>
191.03

>  <Relative PSA>
0.32634

>  <Polar Surface Area>
86.99

>  <Druglikeness>
0.28194

>  <Mutagenic>
none

>  <Tumorigenic>
none

>  <Reproductive Effective>
none

>  <Irritant>
none

>  <Nasty Functions>


>  <Shape Index>
0.55

>  <Molecular Flexibility>
0.23316

>  <Molecular Complexity>
0.83396

>  <Fragments>
1

>  <Non-H Atoms>
20

>  <Non-C/H Atoms>
5

>  <Metal-Atoms>
0

>  <Electronegative Atoms>
5

>  <Stereo Centers>
0

>  <Rotatable Bonds>
1

>  <Rings Closures>
3

>  <Small Rings>
3

>  <Aromatic Rings>
2

>  <Aromatic Atoms>
12

>  <sp3-Atoms>
4

>  <Symmetric atoms>
2

>  <Amides>
0

>  <Amines>
0

>  <Alkyl-Amines>
0

>  <Aromatic Amines>
0

>  <Aromatic Nitrogens>
0

>  <Basic Nitrogens>
0

>  <Acidic Oxygens>
0

>  <Stereo Configuration>


> <Gold.Version>
5.8.1

> <Gold.Id.Protein>
ID_2|Prot_COX2_5IKQ_Alig|mol2

> <Gold.Goldscore.Fitness>
55.4985

> <Gold.Goldscore.Internal.Vdw>
-0.7496

> <Gold.Goldscore.Internal.Torsion>
-5.8102

> <Gold.Goldscore.External.Vdw>
41.5259

> <Gold.Goldscore.Internal.HBond>
0.0000

> <Gold.Goldscore.External.HBond>
0.0000

> <Gold.Goldscore.Internal.Correction>
-4.9601

> <Gold.Goldscore.Internal.Vdw.Weighted>
-0.7496

> <Gold.Goldscore.Internal.Torsion.Weighted>
-5.8102

> <Gold.Goldscore.External.Vdw.Weighted>
57.0981

> <Gold.Goldscore.Internal.HBond.Weighted>
0.0000

> <Gold.Goldscore.External.HBond.Weighted>
0.0000

> <Gold.Goldscore.Internal.Correction.Weighted>
-4.9601

> <Gold.Protein.RotatedTorsions>
[ 5077 5068 5067 5065 ] final  103.18 input  179.94 | X-H torsion
[ 5157 5152 5151 5148 ] final  -21.33 input -179.92 | X-H torsion
[ 5185 5176 5175 5173 ] final   53.52 input -179.99 | X-H torsion
[ 5712 5703 5702 5700 ] final  135.31 input  180.00 | X-H torsion
[ 8036 8031 8030 8027 ] final  154.33 input -179.94 | X-H torsion
[ 2749 2745 2743 2740 ] final -170.25 input  -60.05 | X-H torsion
[ 1366 1361 1360 1357 ] final -101.22 input  -60.09 | X-H torsion
[ 2556 2551 2550 2547 ] final  133.56 input   59.97 | X-H torsion

> <Gold.Protein.ActiveResidues>
 PRO86   VAL89   HIS90   LEU93   THR94   ILE112  MET113  TYR115  VAL116  LEU117 
 THR118  SER119  ARG120  SER121  LEU123  ILE124  GLN192  SER194  PHE198  PHE201 
 ALA202  GLN203  PHE205  THR206  PHE209  PHE210  VAL228  ILE341  ILE343  VAL344 
 ILE345  GLU346  ASP347  TYR348  VAL349  GLN350  HIS351  LEU352  SER353  GLY354 
 TYR355  PHE357  LEU359  LYS360  GLU380  PHE381  ASN382  THR383  LEU384  TYR385 
 HIS386  TRP387  LEU390  VAL434  LEU507  ARG513  ALA516  ILE517  PHE518  GLY519 
 GLU520  THR521  MET522  VAL523  GLU524  VAL525  GLY526  ALA527  PRO528  PHE529 
 SER530  LEU531  LYS532  GLY533  LEU534  MET535  COH609 

> <Gold.Protein.RotatedAtoms>
   18.3087    7.4799    3.3767 H   0  0  0  0  0  0  0  0  0  0  0  0  # atno 1366 bound_to 1361
    4.8450   -9.7662    6.6381 H   0  0  0  0  0  0  0  0  0  0  0  0  # atno 2556 bound_to 2551
   -2.8298   -0.4706    0.3374 H   0  0  0  0  0  0  0  0  0  0  0  0  # atno 2749 bound_to 2745
    0.9852   -1.4210    3.8761 H   0  0  0  0  0  0  0  0  0  0  0  0  # atno 5077 bound_to 5068
   11.6439   -2.7273    9.2656 H   0  0  0  0  0  0  0  0  0  0  0  0  # atno 5157 bound_to 5152
   15.3577   -0.9484    4.6467 H   0  0  0  0  0  0  0  0  0  0  0  0  # atno 5185 bound_to 5176
    3.0398   -0.2056    2.3669 H   0  0  0  0  0  0  0  0  0  0  0  0  # atno 5712 bound_to 5703
    5.4474    3.6895    3.4376 H   0  0  0  0  0  0  0  0  0  0  0  0  # atno 8036 bound_to 8031
    0.9915   -2.8578    4.3199 LP  0  0  0  0  0  0  0  0  0  0  0  0  # atno 8267 bound_to 5068
    2.3132   -2.1091    3.7206 LP  0  0  0  0  0  0  0  0  0  0  0  0  # atno 8268 bound_to 5068
   11.8286   -1.2344    9.3122 LP  0  0  0  0  0  0  0  0  0  0  0  0  # atno 8279 bound_to 5152
   13.0786   -2.2785    9.1935 LP  0  0  0  0  0  0  0  0  0  0  0  0  # atno 8280 bound_to 5152
   16.7583   -0.4787    4.9233 LP  0  0  0  0  0  0  0  0  0  0  0  0  # atno 8281 bound_to 5176
   15.4564    0.5012    5.0308 LP  0  0  0  0  0  0  0  0  0  0  0  0  # atno 8282 bound_to 5176
    2.0056   -1.1838    2.8487 LP  0  0  0  0  0  0  0  0  0  0  0  0  # atno 8283 bound_to 5703
    1.7176    0.4181    2.7153 LP  0  0  0  0  0  0  0  0  0  0  0  0  # atno 8284 bound_to 5703
    4.7695    5.0165    3.2393 LP  0  0  0  0  0  0  0  0  0  0  0  0  # atno 8309 bound_to 8031
    6.3066    4.8767    3.7726 LP  0  0  0  0  0  0  0  0  0  0  0  0  # atno 8310 bound_to 8031
   -4.0887    0.2594   -0.0442 LP  0  0  0  0  0  0  0  0  0  0  0  0  # atno 8323 bound_to 2745
   -3.7332   -0.1487    1.4965 LP  0  0  0  0  0  0  0  0  0  0  0  0  # atno 8324 bound_to 2745
   18.7598    6.4667    2.3598 LP  0  0  0  0  0  0  0  0  0  0  0  0  # atno 8335 bound_to 1361
   17.5364    7.5131    2.0858 LP  0  0  0  0  0  0  0  0  0  0  0  0  # atno 8336 bound_to 1361
    5.2300   -9.9568    8.0802 LP  0  0  0  0  0  0  0  0  0  0  0  0  # atno 8342 bound_to 2551
    4.5043   -8.6020    7.5284 LP  0  0  0  0  0  0  0  0  0  0  0  0  # atno 8343 bound_to 2551

