
071|LMW3_p|sdf|71|dock3
  -GOLD-   6 72214163D 1   1.00000     0.00000

 16 16  0  0  0  0  0  0  0  0  1 V2000
    9.7275   -6.3686    3.1461 O   0  0  0  0  0  0  0  0  0  0  0  0
   10.9007   -6.0890    3.3598 C   0  0  0  0  0  0  0  0  0  0  0  0
   11.3520   -4.6950    3.5359 C   0  0  0  0  0  0  0  0  0  0  0  0
   12.7116   -4.4376    3.7210 C   0  0  0  0  0  0  0  0  0  0  0  0
   10.4210   -3.6458    3.5166 C   0  0  0  0  0  0  0  0  0  0  0  0
   13.1213   -3.1224    3.8853 C   0  0  0  0  0  0  0  0  0  0  0  0
   10.8481   -2.3253    3.6834 C   0  0  0  0  0  0  0  0  0  0  0  0
   14.4493   -2.8609    4.0669 O   0  0  0  0  0  0  0  0  0  0  0  0
   12.2025   -2.0733    3.8675 C   0  0  0  0  0  0  0  0  0  0  0  0
   12.6855   -0.8057    4.0364 O   0  0  0  0  0  0  0  0  0  0  0  0
   11.5944   -6.8509    3.4182 H   0  0  0  0  0  0  0  0  0  0  0  0
   13.3970   -5.2091    3.7353 H   0  0  0  0  0  0  0  0  0  0  0  0
    9.4187   -3.8492    3.3790 H   0  0  0  0  0  0  0  0  0  0  0  0
   10.1680   -1.5493    3.6702 H   0  0  0  0  0  0  0  0  0  0  0  0
   15.0726   -3.5599    4.0381 H   0  0  0  0  0  0  0  0  0  0  0  0
   13.5848   -0.6734    4.2641 H   0  0  0  0  0  0  0  0  0  0  0  0
  1  2  2  0  0  0  0
  2  3  1  0  0  0  0
  2 11  1  0  0  0  0
  3  4  2  0  0  0  0
  3  5  1  0  0  0  0
  4  6  1  0  0  0  0
  4 12  1  0  0  0  0
  5  7  2  0  0  0  0
  5 13  1  0  0  0  0
  6  8  1  0  0  0  0
  6  9  2  0  0  0  0
  7  9  1  0  0  0  0
  7 14  1  0  0  0  0
  8 15  1  0  0  0  0
  9 10  1  0  0  0  0
 10 16  1  0  0  0  0
M  END
>  <Code-name>
071

>  <Compound>
3,4-dihydroxy benzaldehyde

>  <Specie>
Phellinus baummi

>  <Reference>
ZHANG et al., 2017

>  <Organism>
Antitumoral Activity

>  <Smiles>
Oc(ccc(C=O)c1)c1O

>  <MMFF94 Energy>
13.969

>  <Total Molweight>
138.122

>  <Molweight>
138.122

>  <Monoisotopic Mass>
138.031695

>  <cLogP>
0.9015

>  <cLogS>
-1.348

>  <H-Acceptors>
3

>  <H-Donors>
2

>  <Total Surface Area>
105.5

>  <Relative PSA>
0.37194

>  <Polar Surface Area>
57.53

>  <Druglikeness>
-4.1407

>  <Mutagenic>
high

>  <Tumorigenic>
none

>  <Reproductive Effective>
none

>  <Irritant>
high

>  <Nasty Functions>


>  <Shape Index>
0.7

>  <Molecular Flexibility>
0.25412

>  <Molecular Complexity>
0.64378

>  <Fragments>
1

>  <Non-H Atoms>
10

>  <Non-C/H Atoms>
3

>  <Metal-Atoms>
0

>  <Electronegative Atoms>
3

>  <Stereo Centers>
0

>  <Rotatable Bonds>
1

>  <Rings Closures>
1

>  <Small Rings>
1

>  <Aromatic Rings>
1

>  <Aromatic Atoms>
6

>  <sp3-Atoms>
2

>  <Symmetric atoms>
0

>  <Amides>
0

>  <Amines>
0

>  <Alkyl-Amines>
0

>  <Aromatic Amines>
0

>  <Aromatic Nitrogens>
0

>  <Basic Nitrogens>
0

>  <Acidic Oxygens>
0

>  <Stereo Configuration>


> <Gold.Version>
5.8.1

> <Gold.Id.Protein>
ID_2|Prot_COX2_5IKQ_Alig|mol2

> <Gold.Goldscore.Fitness>
35.3464

> <Gold.Goldscore.Internal.Vdw>
-2.1286

> <Gold.Goldscore.Internal.Torsion>
-0.0622

> <Gold.Goldscore.External.Vdw>
22.7636

> <Gold.Goldscore.Internal.HBond>
0.0000

> <Gold.Goldscore.External.HBond>
4.8721

> <Gold.Goldscore.Internal.Correction>
-1.3651

> <Gold.Goldscore.Hbonds>
donor molecule, donor type, donor heavy atom, donor atom, acceptor molecule, acceptor atom, score
      P1  H  5176  5185       L1     8  0.50
      L1  H     8    15       P1   852  0.97
      L1  H    10    16       P1  5176  0.96

> <Gold.Goldscore.Internal.Vdw.Weighted>
-2.1286

> <Gold.Goldscore.Internal.Torsion.Weighted>
-0.0622

> <Gold.Goldscore.External.Vdw.Weighted>
31.3000

> <Gold.Goldscore.Internal.HBond.Weighted>
0.0000

> <Gold.Goldscore.External.HBond.Weighted>
4.8721

> <Gold.Goldscore.Internal.Correction.Weighted>
-1.3651

> <Gold.Protein.RotatedTorsions>
[ 5077 5068 5067 5065 ] final    9.80 input  179.94 | X-H torsion
[ 5157 5152 5151 5148 ] final   -0.81 input -179.92 | X-H torsion
[ 5185 5176 5175 5173 ] final   35.62 input -179.99 | X-H torsion
[ 5712 5703 5702 5700 ] final  142.68 input  180.00 | X-H torsion
[ 8036 8031 8030 8027 ] final -160.72 input -179.94 | X-H torsion
[ 2749 2745 2743 2740 ] final -127.46 input  -60.05 | X-H torsion
[ 1366 1361 1360 1357 ] final -152.65 input  -60.09 | X-H torsion
[ 2556 2551 2550 2547 ] final  -18.49 input   59.97 | X-H torsion

> <Gold.Protein.ActiveResidues>
 PRO86   VAL89   HIS90   LEU93   THR94   ILE112  MET113  TYR115  VAL116  LEU117 
 THR118  SER119  ARG120  SER121  LEU123  ILE124  GLN192  SER194  PHE198  PHE201 
 ALA202  GLN203  PHE205  THR206  PHE209  PHE210  VAL228  ILE341  ILE343  VAL344 
 ILE345  GLU346  ASP347  TYR348  VAL349  GLN350  HIS351  LEU352  SER353  GLY354 
 TYR355  PHE357  LEU359  LYS360  GLU380  PHE381  ASN382  THR383  LEU384  TYR385 
 HIS386  TRP387  LEU390  VAL434  LEU507  ARG513  ALA516  ILE517  PHE518  GLY519 
 GLU520  THR521  MET522  VAL523  GLU524  VAL525  GLY526  ALA527  PRO528  PHE529 
 SER530  LEU531  LYS532  GLY533  LEU534  MET535  COH609 

> <Gold.Protein.RotatedAtoms>
   18.7408    6.9756    3.2049 H   0  0  0  0  0  0  0  0  0  0  0  0  # atno 1366 bound_to 1361
    4.9887   -9.5218    8.1456 H   0  0  0  0  0  0  0  0  0  0  0  0  # atno 2556 bound_to 2551
   -2.8894   -0.5110    0.9091 H   0  0  0  0  0  0  0  0  0  0  0  0  # atno 2749 bound_to 2745
    0.7966   -2.4764    4.2888 H   0  0  0  0  0  0  0  0  0  0  0  0  # atno 5077 bound_to 5068
   11.8881   -2.8659    9.2432 H   0  0  0  0  0  0  0  0  0  0  0  0  # atno 5157 bound_to 5152
   15.5733   -1.0651    4.6420 H   0  0  0  0  0  0  0  0  0  0  0  0  # atno 5185 bound_to 5176
    3.0158   -0.1073    2.3606 H   0  0  0  0  0  0  0  0  0  0  0  0  # atno 5712 bound_to 5703
    5.9908    3.8713    3.6244 H   0  0  0  0  0  0  0  0  0  0  0  0  # atno 8036 bound_to 8031
    2.2422   -2.5062    3.8759 LP  0  0  0  0  0  0  0  0  0  0  0  0  # atno 8267 bound_to 5068
    1.2883   -1.1969    3.6705 LP  0  0  0  0  0  0  0  0  0  0  0  0  # atno 8268 bound_to 5068
   11.5398   -1.4047    9.3347 LP  0  0  0  0  0  0  0  0  0  0  0  0  # atno 8279 bound_to 5152
   13.0756   -1.9425    9.1978 LP  0  0  0  0  0  0  0  0  0  0  0  0  # atno 8280 bound_to 5152
   16.7454   -0.1964    5.0027 LP  0  0  0  0  0  0  0  0  0  0  0  0  # atno 8281 bound_to 5176
   15.2104    0.3589    4.9570 LP  0  0  0  0  0  0  0  0  0  0  0  0  # atno 8282 bound_to 5176
    2.1177   -1.2209    2.8210 LP  0  0  0  0  0  0  0  0  0  0  0  0  # atno 8283 bound_to 5703
    1.6342    0.3373    2.7507 LP  0  0  0  0  0  0  0  0  0  0  0  0  # atno 8284 bound_to 5703
    4.6200    4.3124    3.1928 LP  0  0  0  0  0  0  0  0  0  0  0  0  # atno 8309 bound_to 8031
    5.8040    5.3626    3.5950 LP  0  0  0  0  0  0  0  0  0  0  0  0  # atno 8310 bound_to 8031
   -3.5404   -0.0181   -0.3544 LP  0  0  0  0  0  0  0  0  0  0  0  0  # atno 8323 bound_to 2745
   -4.2102    0.1771    1.1220 LP  0  0  0  0  0  0  0  0  0  0  0  0  # atno 8324 bound_to 2745
   18.2047    6.7331    1.8200 LP  0  0  0  0  0  0  0  0  0  0  0  0  # atno 8335 bound_to 1361
   17.5746    7.8499    2.8312 LP  0  0  0  0  0  0  0  0  0  0  0  0  # atno 8336 bound_to 1361
    4.4553   -8.6854    7.0142 LP  0  0  0  0  0  0  0  0  0  0  0  0  # atno 8342 bound_to 2551
    5.1072  -10.1658    6.7909 LP  0  0  0  0  0  0  0  0  0  0  0  0  # atno 8343 bound_to 2551

