
072|LMW3_p|sdf|72|dock2
  -GOLD-   6 72214163D 1   1.00000     0.00000

 16 16  0  0  0  0  0  0  0  0  1 V2000
   12.1359   -7.5488    2.8439 O   0  0  0  0  0  0  0  0  0  0  0  0
   11.2841   -6.6851    3.0082 C   0  0  0  0  0  0  0  0  0  0  0  0
   11.6319   -5.2832    3.3176 C   0  0  0  0  0  0  0  0  0  0  0  0
   12.9807   -4.9240    3.4346 C   0  0  0  0  0  0  0  0  0  0  0  0
   10.6166   -4.3322    3.4902 C   0  0  0  0  0  0  0  0  0  0  0  0
   13.2940   -3.6012    3.7261 C   0  0  0  0  0  0  0  0  0  0  0  0
   10.9467   -3.0083    3.7825 C   0  0  0  0  0  0  0  0  0  0  0  0
   14.5870   -3.1744    3.8558 O   0  0  0  0  0  0  0  0  0  0  0  0
   12.2838   -2.6551    3.8979 C   0  0  0  0  0  0  0  0  0  0  0  0
   12.6054   -1.3596    4.1838 O   0  0  0  0  0  0  0  0  0  0  0  0
   10.2887   -6.9453    2.9277 H   0  0  0  0  0  0  0  0  0  0  0  0
   13.7260   -5.6263    3.3071 H   0  0  0  0  0  0  0  0  0  0  0  0
    9.6269   -4.6108    3.4013 H   0  0  0  0  0  0  0  0  0  0  0  0
   10.2062   -2.3010    3.9113 H   0  0  0  0  0  0  0  0  0  0  0  0
   15.2926   -3.7854    3.7736 H   0  0  0  0  0  0  0  0  0  0  0  0
   13.4795   -1.1393    4.4392 H   0  0  0  0  0  0  0  0  0  0  0  0
  1  2  2  0  0  0  0
  2  3  1  0  0  0  0
  2 11  1  0  0  0  0
  3  4  2  0  0  0  0
  3  5  1  0  0  0  0
  4  6  1  0  0  0  0
  4 12  1  0  0  0  0
  5  7  2  0  0  0  0
  5 13  1  0  0  0  0
  6  8  1  0  0  0  0
  6  9  2  0  0  0  0
  7  9  1  0  0  0  0
  7 14  1  0  0  0  0
  8 15  1  0  0  0  0
  9 10  1  0  0  0  0
 10 16  1  0  0  0  0
M  END
>  <Code-name>
072

>  <Compound>
Hericerina

>  <Specie>
Hericium erinaceum

>  <Reference>
LI et al., 2015

>  <Organism>
Antitumoral Activity

>  <Smiles>
Oc(ccc(C=O)c1)c1O

>  <MMFF94 Energy>
15.884

>  <Total Molweight>
138.122

>  <Molweight>
138.122

>  <Monoisotopic Mass>
138.031695

>  <cLogP>
0.9015

>  <cLogS>
-1.348

>  <H-Acceptors>
3

>  <H-Donors>
2

>  <Total Surface Area>
105.5

>  <Relative PSA>
0.37194

>  <Polar Surface Area>
57.53

>  <Druglikeness>
-4.1407

>  <Mutagenic>
high

>  <Tumorigenic>
none

>  <Reproductive Effective>
none

>  <Irritant>
high

>  <Nasty Functions>


>  <Shape Index>
0.7

>  <Molecular Flexibility>
0.25412

>  <Molecular Complexity>
0.64378

>  <Fragments>
1

>  <Non-H Atoms>
10

>  <Non-C/H Atoms>
3

>  <Metal-Atoms>
0

>  <Electronegative Atoms>
3

>  <Stereo Centers>
0

>  <Rotatable Bonds>
1

>  <Rings Closures>
1

>  <Small Rings>
1

>  <Aromatic Rings>
1

>  <Aromatic Atoms>
6

>  <sp3-Atoms>
2

>  <Symmetric atoms>
0

>  <Amides>
0

>  <Amines>
0

>  <Alkyl-Amines>
0

>  <Aromatic Amines>
0

>  <Aromatic Nitrogens>
0

>  <Basic Nitrogens>
0

>  <Acidic Oxygens>
0

>  <Stereo Configuration>


> <Gold.Version>
5.8.1

> <Gold.Id.Protein>
ID_2|Prot_COX2_5IKQ_Alig|mol2

> <Gold.Goldscore.Fitness>
36.0457

> <Gold.Goldscore.Internal.Vdw>
-1.4225

> <Gold.Goldscore.Internal.Torsion>
-0.1185

> <Gold.Goldscore.External.Vdw>
23.0020

> <Gold.Goldscore.Internal.HBond>
0.0000

> <Gold.Goldscore.External.HBond>
4.6251

> <Gold.Goldscore.Internal.Correction>
-1.3339

> <Gold.Goldscore.Hbonds>
donor molecule, donor type, donor heavy atom, donor atom, acceptor molecule, acceptor atom, score
      P1  H  5176  5185       L1     8  0.46
      P1  H  7855  7866       L1     1  0.13
      L1  H     8    15       P1   852  0.82
      L1  H    10    16       P1  5176  0.90

> <Gold.Goldscore.Internal.Vdw.Weighted>
-1.4225

> <Gold.Goldscore.Internal.Torsion.Weighted>
-0.1185

> <Gold.Goldscore.External.Vdw.Weighted>
31.6277

> <Gold.Goldscore.Internal.HBond.Weighted>
0.0000

> <Gold.Goldscore.External.HBond.Weighted>
4.6251

> <Gold.Goldscore.Internal.Correction.Weighted>
-1.3339

> <Gold.Protein.RotatedTorsions>
[ 5077 5068 5067 5065 ] final  -62.98 input  179.94 | X-H torsion
[ 5157 5152 5151 5148 ] final  132.72 input -179.92 | X-H torsion
[ 5185 5176 5175 5173 ] final   29.68 input -179.99 | X-H torsion
[ 5712 5703 5702 5700 ] final  133.88 input  180.00 | X-H torsion
[ 8036 8031 8030 8027 ] final -150.41 input -179.94 | X-H torsion
[ 2749 2745 2743 2740 ] final  162.05 input  -60.05 | X-H torsion
[ 1366 1361 1360 1357 ] final  -28.31 input  -60.09 | X-H torsion
[ 2556 2551 2550 2547 ] final -160.77 input   59.97 | X-H torsion

> <Gold.Protein.ActiveResidues>
 PRO86   VAL89   HIS90   LEU93   THR94   ILE112  MET113  TYR115  VAL116  LEU117 
 THR118  SER119  ARG120  SER121  LEU123  ILE124  GLN192  SER194  PHE198  PHE201 
 ALA202  GLN203  PHE205  THR206  PHE209  PHE210  VAL228  ILE341  ILE343  VAL344 
 ILE345  GLU346  ASP347  TYR348  VAL349  GLN350  HIS351  LEU352  SER353  GLY354 
 TYR355  PHE357  LEU359  LYS360  GLU380  PHE381  ASN382  THR383  LEU384  TYR385 
 HIS386  TRP387  LEU390  VAL434  LEU507  ARG513  ALA516  ILE517  PHE518  GLY519 
 GLU520  THR521  MET522  VAL523  GLU524  VAL525  GLY526  ALA527  PRO528  PHE529 
 SER530  LEU531  LYS532  GLY533  LEU534  MET535  COH609 

> <Gold.Protein.RotatedAtoms>
   17.6848    7.7609    2.7334 H   0  0  0  0  0  0  0  0  0  0  0  0  # atno 1366 bound_to 1361
    4.5184   -8.9965    6.8263 H   0  0  0  0  0  0  0  0  0  0  0  0  # atno 2556 bound_to 2551
   -2.9857   -0.3385    0.0191 H   0  0  0  0  0  0  0  0  0  0  0  0  # atno 2749 bound_to 2745
    1.6683   -2.7994    4.1752 H   0  0  0  0  0  0  0  0  0  0  0  0  # atno 5077 bound_to 5068
   12.8667   -1.7941    9.1730 H   0  0  0  0  0  0  0  0  0  0  0  0  # atno 5157 bound_to 5152
   15.6513   -1.0890    4.6455 H   0  0  0  0  0  0  0  0  0  0  0  0  # atno 5185 bound_to 5176
    3.0430   -0.2248    2.3686 H   0  0  0  0  0  0  0  0  0  0  0  0  # atno 5712 bound_to 5703
    6.0854    3.9718    3.6564 H   0  0  0  0  0  0  0  0  0  0  0  0  # atno 8036 bound_to 8031
    1.9899   -1.4569    3.5790 LP  0  0  0  0  0  0  0  0  0  0  0  0  # atno 8267 bound_to 5068
    0.4967   -1.8595    4.1033 LP  0  0  0  0  0  0  0  0  0  0  0  0  # atno 8268 bound_to 5068
   12.0564   -3.0586    9.2709 LP  0  0  0  0  0  0  0  0  0  0  0  0  # atno 8279 bound_to 5152
   11.3884   -1.5704    9.3456 LP  0  0  0  0  0  0  0  0  0  0  0  0  # atno 8280 bound_to 5152
   16.7212   -0.1045    5.0259 LP  0  0  0  0  0  0  0  0  0  0  0  0  # atno 8281 bound_to 5176
   15.1410    0.2957    4.9295 LP  0  0  0  0  0  0  0  0  0  0  0  0  # atno 8282 bound_to 5176
    1.9844   -1.1749    2.8537 LP  0  0  0  0  0  0  0  0  0  0  0  0  # atno 8283 bound_to 5703
    1.7348    0.4323    2.7084 LP  0  0  0  0  0  0  0  0  0  0  0  0  # atno 8284 bound_to 5703
    4.6614    4.1487    3.2084 LP  0  0  0  0  0  0  0  0  0  0  0  0  # atno 8309 bound_to 8031
    5.6491    5.4058    3.5410 LP  0  0  0  0  0  0  0  0  0  0  0  0  # atno 8310 bound_to 8031
   -4.2934    0.3262    0.3530 LP  0  0  0  0  0  0  0  0  0  0  0  0  # atno 8323 bound_to 2745
   -3.3417   -0.3737    1.4805 LP  0  0  0  0  0  0  0  0  0  0  0  0  # atno 8324 bound_to 2745
   18.7821    6.9520    3.3703 LP  0  0  0  0  0  0  0  0  0  0  0  0  # atno 8335 bound_to 1361
   18.2604    6.6917    1.8449 LP  0  0  0  0  0  0  0  0  0  0  0  0  # atno 8336 bound_to 1361
    5.2226  -10.2947    7.1146 LP  0  0  0  0  0  0  0  0  0  0  0  0  # atno 8342 bound_to 2551
    4.9025   -9.1849    8.2689 LP  0  0  0  0  0  0  0  0  0  0  0  0  # atno 8343 bound_to 2551

