
074|LMW3_p|sdf|74|dock7
  -GOLD-   6 72214163D 1   1.00000     0.00000

 15 15  0  0  0  0  0  0  0  0  2 V2000
   14.5480   -2.3208    3.7440 O   0  0  0  0  0  0  0  0  0  0  0  0
   13.3737   -2.5773    3.9341 C   0  0  0  0  0  0  0  0  0  0  0  0
   12.5461   -1.6783    4.4964 O   0  5  0  0  0  0  0  0  0  0  0  0
   12.6953   -3.8522    3.5969 C   0  0  0  0  0  0  0  0  0  0  0  0
   13.4732   -4.9080    3.1047 C   0  0  0  0  0  0  0  0  0  0  0  0
   11.3130   -4.0243    3.7566 C   0  0  0  0  0  0  0  0  0  0  0  0
   12.8729   -6.1247    2.7753 C   0  0  0  0  0  0  0  0  0  0  0  0
   10.7139   -5.2434    3.4261 C   0  0  0  0  0  0  0  0  0  0  0  0
   11.5009   -6.2825    2.9383 C   0  0  0  0  0  0  0  0  0  0  0  0
   10.9582   -7.4872    2.6041 O   0  0  0  0  0  0  0  0  0  0  0  0
   14.4911   -4.7864    2.9854 H   0  0  0  0  0  0  0  0  0  0  0  0
   10.7363   -3.2490    4.1190 H   0  0  0  0  0  0  0  0  0  0  0  0
   13.4448   -6.9034    2.4125 H   0  0  0  0  0  0  0  0  0  0  0  0
    9.6966   -5.3718    3.5429 H   0  0  0  0  0  0  0  0  0  0  0  0
   10.7314   -8.1011    3.2747 H   0  0  0  0  0  0  0  0  0  0  0  0
  1  2  2  0  0  0  0
  2  3  1  0  0  0  0
  2  4  1  0  0  0  0
  4  5  2  0  0  0  0
  4  6  1  0  0  0  0
  5  7  1  0  0  0  0
  5 11  1  0  0  0  0
  6  8  2  0  0  0  0
  6 12  1  0  0  0  0
  7  9  2  0  0  0  0
  7 13  1  0  0  0  0
  8  9  1  0  0  0  0
  8 14  1  0  0  0  0
  9 10  1  0  0  0  0
 10 15  1  0  0  0  0
M  CHG  1   3  -1
M  END
>  <Code-name>
074

>  <Compound>
p-Hydroxybenzoic Acid

>  <Specie>
Agaricus Bisporus

>  <Reference>
Barros (2009)

>  <Organism>
N/A

>  <Smiles>
OC(c(cc1)ccc1O)=O

>  <MMFF94 Energy>
0.15239

>  <Total Molweight>
138.122

>  <Molweight>
138.122

>  <Monoisotopic Mass>
138.031695

>  <cLogP>
0.799

>  <cLogS>
-1.333

>  <H-Acceptors>
3

>  <H-Donors>
2

>  <Total Surface Area>
103.71

>  <Relative PSA>
0.37836

>  <Polar Surface Area>
57.53

>  <Druglikeness>
-1.8442

>  <Mutagenic>
high

>  <Tumorigenic>
none

>  <Reproductive Effective>
none

>  <Irritant>
none

>  <Nasty Functions>


>  <Shape Index>
0.7

>  <Molecular Flexibility>
0.33711

>  <Molecular Complexity>
0.57807

>  <Fragments>
1

>  <Non-H Atoms>
10

>  <Non-C/H Atoms>
3

>  <Metal-Atoms>
0

>  <Electronegative Atoms>
3

>  <Stereo Centers>
0

>  <Rotatable Bonds>
1

>  <Rings Closures>
1

>  <Small Rings>
1

>  <Aromatic Rings>
1

>  <Aromatic Atoms>
6

>  <sp3-Atoms>
2

>  <Symmetric atoms>
2

>  <Amides>
0

>  <Amines>
0

>  <Alkyl-Amines>
0

>  <Aromatic Amines>
0

>  <Aromatic Nitrogens>
0

>  <Basic Nitrogens>
0

>  <Acidic Oxygens>
1

>  <Stereo Configuration>


> <Gold.Version>
5.8.1

> <Gold.Id.Protein>
ID_2|Prot_COX2_5IKQ_Alig|mol2

> <Gold.Goldscore.Fitness>
35.8946

> <Gold.Goldscore.Internal.Vdw>
-0.2032

> <Gold.Goldscore.Internal.Torsion>
-2.3388

> <Gold.Goldscore.External.Vdw>
22.3670

> <Gold.Goldscore.Internal.HBond>
0.0000

> <Gold.Goldscore.External.HBond>
6.8069

> <Gold.Goldscore.Internal.Correction>
-0.8752

> <Gold.Goldscore.Hbonds>
donor molecule, donor type, donor heavy atom, donor atom, acceptor molecule, acceptor atom, score
      P1  H  5176  5185       L1     1  0.95
      P1  H  7855  7866       L1    10  0.09
      L1  H    10    15       P1  2530  0.47

> <Gold.Goldscore.Internal.Vdw.Weighted>
-0.2032

> <Gold.Goldscore.Internal.Torsion.Weighted>
-2.3388

> <Gold.Goldscore.External.Vdw.Weighted>
30.7546

> <Gold.Goldscore.Internal.HBond.Weighted>
0.0000

> <Gold.Goldscore.External.HBond.Weighted>
6.8069

> <Gold.Goldscore.Internal.Correction.Weighted>
-0.8752

> <Gold.Protein.RotatedTorsions>
[ 5077 5068 5067 5065 ] final  -31.84 input  179.94 | X-H torsion
[ 5157 5152 5151 5148 ] final  -94.90 input -179.92 | X-H torsion
[ 5185 5176 5175 5173 ] final   41.68 input -179.99 | X-H torsion
[ 5712 5703 5702 5700 ] final   39.10 input  180.00 | X-H torsion
[ 8036 8031 8030 8027 ] final  166.90 input -179.94 | X-H torsion
[ 2749 2745 2743 2740 ] final  163.14 input  -60.05 | X-H torsion
[ 1366 1361 1360 1357 ] final   25.26 input  -60.09 | X-H torsion
[ 2556 2551 2550 2547 ] final   -4.31 input   59.97 | X-H torsion

> <Gold.Protein.ActiveResidues>
 PRO86   VAL89   HIS90   LEU93   THR94   ILE112  MET113  TYR115  VAL116  LEU117 
 THR118  SER119  ARG120  SER121  LEU123  ILE124  GLN192  SER194  PHE198  PHE201 
 ALA202  GLN203  PHE205  THR206  PHE209  PHE210  VAL228  ILE341  ILE343  VAL344 
 ILE345  GLU346  ASP347  TYR348  VAL349  GLN350  HIS351  LEU352  SER353  GLY354 
 TYR355  PHE357  LEU359  LYS360  GLU380  PHE381  ASN382  THR383  LEU384  TYR385 
 HIS386  TRP387  LEU390  VAL434  LEU507  ARG513  ALA516  ILE517  PHE518  GLY519 
 GLU520  THR521  MET522  VAL523  GLU524  VAL525  GLY526  ALA527  PRO528  PHE529 
 SER530  LEU531  LYS532  GLY533  LEU534  MET535  COH609 

> <Gold.Protein.RotatedAtoms>
   17.7017    7.4286    2.1036 H   0  0  0  0  0  0  0  0  0  0  0  0  # atno 1366 bound_to 1361
    5.0612   -9.6958    8.0956 H   0  0  0  0  0  0  0  0  0  0  0  0  # atno 2556 bound_to 2551
   -2.9770   -0.3449    0.0297 H   0  0  0  0  0  0  0  0  0  0  0  0  # atno 2749 bound_to 2745
    1.2578   -2.7959    4.2800 H   0  0  0  0  0  0  0  0  0  0  0  0  # atno 5077 bound_to 5068
   11.4252   -1.8064    9.2953 H   0  0  0  0  0  0  0  0  0  0  0  0  # atno 5157 bound_to 5152
   15.4965   -1.0329    4.6410 H   0  0  0  0  0  0  0  0  0  0  0  0  # atno 5185 bound_to 5176
    2.3534   -1.1008    2.6890 H   0  0  0  0  0  0  0  0  0  0  0  0  # atno 5712 bound_to 5703
    5.6105    3.6936    3.4940 H   0  0  0  0  0  0  0  0  0  0  0  0  # atno 8036 bound_to 8031
    2.2667   -1.8746    3.6517 LP  0  0  0  0  0  0  0  0  0  0  0  0  # atno 8267 bound_to 5068
    0.7115   -1.4459    3.9052 LP  0  0  0  0  0  0  0  0  0  0  0  0  # atno 8268 bound_to 5068
   12.9074   -1.5575    9.2167 LP  0  0  0  0  0  0  0  0  0  0  0  0  # atno 8279 bound_to 5152
   12.2616   -3.0569    9.2535 LP  0  0  0  0  0  0  0  0  0  0  0  0  # atno 8280 bound_to 5152
   16.7599   -0.2917    4.9772 LP  0  0  0  0  0  0  0  0  0  0  0  0  # atno 8281 bound_to 5176
   15.2881    0.4155    4.9836 LP  0  0  0  0  0  0  0  0  0  0  0  0  # atno 8282 bound_to 5176
    1.4915    0.1232    2.8214 LP  0  0  0  0  0  0  0  0  0  0  0  0  # atno 8283 bound_to 5703
    3.0555    0.1856    2.3560 LP  0  0  0  0  0  0  0  0  0  0  0  0  # atno 8284 bound_to 5703
    4.6753    4.8353    3.2080 LP  0  0  0  0  0  0  0  0  0  0  0  0  # atno 8309 bound_to 8031
    6.2051    5.0529    3.7362 LP  0  0  0  0  0  0  0  0  0  0  0  0  # atno 8310 bound_to 8031
   -4.2886    0.3256    0.3357 LP  0  0  0  0  0  0  0  0  0  0  0  0  # atno 8323 bound_to 2745
   -3.3570   -0.3654    1.4852 LP  0  0  0  0  0  0  0  0  0  0  0  0  # atno 8324 bound_to 2745
   18.2156    7.5704    3.5106 LP  0  0  0  0  0  0  0  0  0  0  0  0  # atno 8335 bound_to 1361
   18.8066    6.4707    2.4580 LP  0  0  0  0  0  0  0  0  0  0  0  0  # atno 8336 bound_to 1361
    4.4609   -8.6161    7.2364 LP  0  0  0  0  0  0  0  0  0  0  0  0  # atno 8342 bound_to 2551
    5.0147  -10.0269    6.6285 LP  0  0  0  0  0  0  0  0  0  0  0  0  # atno 8343 bound_to 2551

