
075|LMW3_p|sdf|75|dock2
  -GOLD-   6 72214173D 1   1.00000     0.00000

 16 16  0  0  0  0  0  0  0  0  2 V2000
    9.7382   -6.4391    3.1402 O   0  0  0  0  0  0  0  0  0  0  0  0
   10.9135   -6.1309    3.2091 C   0  0  0  0  0  0  0  0  0  0  0  0
   11.8853   -7.0509    3.0813 O   0  5  0  0  0  0  0  0  0  0  0  0
   11.4395   -4.7633    3.4337 C   0  0  0  0  0  0  0  0  0  0  0  0
   12.8107   -4.5099    3.5681 C   0  0  0  0  0  0  0  0  0  0  0  0
   10.5193   -3.7048    3.5198 C   0  0  0  0  0  0  0  0  0  0  0  0
   13.2392   -3.2072    3.7864 C   0  0  0  0  0  0  0  0  0  0  0  0
   10.9653   -2.3963    3.7229 C   0  0  0  0  0  0  0  0  0  0  0  0
   14.5706   -2.9757    3.9798 O   0  0  0  0  0  0  0  0  0  0  0  0
   12.3269   -2.1561    3.8370 C   0  0  0  0  0  0  0  0  0  0  0  0
   12.7599   -0.8694    3.9706 O   0  0  0  0  0  0  0  0  0  0  0  0
   13.4935   -5.2812    3.5056 H   0  0  0  0  0  0  0  0  0  0  0  0
    9.5087   -3.8949    3.4326 H   0  0  0  0  0  0  0  0  0  0  0  0
   10.2903   -1.6182    3.7871 H   0  0  0  0  0  0  0  0  0  0  0  0
   15.1762   -3.6906    3.9732 H   0  0  0  0  0  0  0  0  0  0  0  0
   13.6466   -0.6970    4.2196 H   0  0  0  0  0  0  0  0  0  0  0  0
  1  2  2  0  0  0  0
  2  3  1  0  0  0  0
  2  4  1  0  0  0  0
  4  5  2  0  0  0  0
  4  6  1  0  0  0  0
  5  7  1  0  0  0  0
  5 12  1  0  0  0  0
  6  8  2  0  0  0  0
  6 13  1  0  0  0  0
  7  9  1  0  0  0  0
  7 10  2  0  0  0  0
  8 10  1  0  0  0  0
  8 14  1  0  0  0  0
  9 15  1  0  0  0  0
 10 11  1  0  0  0  0
 11 16  1  0  0  0  0
M  CHG  1   3  -1
M  END
>  <Code-name>
075

>  <Compound>
Protocatechuic Acid

>  <Specie>
Pleurotus ostreatus

>  <Reference>
L. sulphureus

>  <Organism>
N/A

>  <Smiles>
OC(c(cc1)cc(O)c1O)=O

>  <MMFF94 Energy>
-1.726

>  <Total Molweight>
154.121

>  <Molweight>
154.121

>  <Monoisotopic Mass>
154.026610

>  <cLogP>
0.4533

>  <cLogS>
-1.037

>  <H-Acceptors>
4

>  <H-Donors>
3

>  <Total Surface Area>
110.06

>  <Relative PSA>
0.47556

>  <Polar Surface Area>
77.76

>  <Druglikeness>
-1.8442

>  <Mutagenic>
high

>  <Tumorigenic>
none

>  <Reproductive Effective>
none

>  <Irritant>
none

>  <Nasty Functions>


>  <Shape Index>
0.63636

>  <Molecular Flexibility>
0.31597

>  <Molecular Complexity>
0.68024

>  <Fragments>
1

>  <Non-H Atoms>
11

>  <Non-C/H Atoms>
4

>  <Metal-Atoms>
0

>  <Electronegative Atoms>
4

>  <Stereo Centers>
0

>  <Rotatable Bonds>
1

>  <Rings Closures>
1

>  <Small Rings>
1

>  <Aromatic Rings>
1

>  <Aromatic Atoms>
6

>  <sp3-Atoms>
3

>  <Symmetric atoms>
0

>  <Amides>
0

>  <Amines>
0

>  <Alkyl-Amines>
0

>  <Aromatic Amines>
0

>  <Aromatic Nitrogens>
0

>  <Basic Nitrogens>
0

>  <Acidic Oxygens>
1

>  <Stereo Configuration>


> <Gold.Version>
5.8.1

> <Gold.Id.Protein>
ID_2|Prot_COX2_5IKQ_Alig|mol2

> <Gold.Goldscore.Fitness>
37.2644

> <Gold.Goldscore.Internal.Vdw>
-1.6824

> <Gold.Goldscore.Internal.Torsion>
-0.1425

> <Gold.Goldscore.External.Vdw>
23.5505

> <Gold.Goldscore.Internal.HBond>
0.0000

> <Gold.Goldscore.External.HBond>
4.9374

> <Gold.Goldscore.Internal.Correction>
-1.7699

> <Gold.Goldscore.Hbonds>
donor molecule, donor type, donor heavy atom, donor atom, acceptor molecule, acceptor atom, score
      P1  H  5176  5185       L1     9  0.48
      L1  H     9    15       P1   852  1.00
      L1  H    11    16       P1  5176  0.99

> <Gold.Goldscore.Internal.Vdw.Weighted>
-1.6824

> <Gold.Goldscore.Internal.Torsion.Weighted>
-0.1425

> <Gold.Goldscore.External.Vdw.Weighted>
32.3819

> <Gold.Goldscore.Internal.HBond.Weighted>
0.0000

> <Gold.Goldscore.External.HBond.Weighted>
4.9374

> <Gold.Goldscore.Internal.Correction.Weighted>
-1.7699

> <Gold.Protein.RotatedTorsions>
[ 5077 5068 5067 5065 ] final  -89.35 input  179.94 | X-H torsion
[ 5157 5152 5151 5148 ] final   38.70 input -179.92 | X-H torsion
[ 5185 5176 5175 5173 ] final   30.66 input -179.99 | X-H torsion
[ 5712 5703 5702 5700 ] final  -20.22 input  180.00 | X-H torsion
[ 8036 8031 8030 8027 ] final -144.76 input -179.94 | X-H torsion
[ 2749 2745 2743 2740 ] final -163.09 input  -60.05 | X-H torsion
[ 1366 1361 1360 1357 ] final -114.33 input  -60.09 | X-H torsion
[ 2556 2551 2550 2547 ] final -173.95 input   59.97 | X-H torsion

> <Gold.Protein.ActiveResidues>
 PRO86   VAL89   HIS90   LEU93   THR94   ILE112  MET113  TYR115  VAL116  LEU117 
 THR118  SER119  ARG120  SER121  LEU123  ILE124  GLN192  SER194  PHE198  PHE201 
 ALA202  GLN203  PHE205  THR206  PHE209  PHE210  VAL228  ILE341  ILE343  VAL344 
 ILE345  GLU346  ASP347  TYR348  VAL349  GLN350  HIS351  LEU352  SER353  GLY354 
 TYR355  PHE357  LEU359  LYS360  GLU380  PHE381  ASN382  THR383  LEU384  TYR385 
 HIS386  TRP387  LEU390  VAL434  LEU507  ARG513  ALA516  ILE517  PHE518  GLY519 
 GLU520  THR521  MET522  VAL523  GLU524  VAL525  GLY526  ALA527  PRO528  PHE529 
 SER530  LEU531  LYS532  GLY533  LEU534  MET535  COH609 

> <Gold.Protein.RotatedAtoms>
   18.4409    7.3575    3.3877 H   0  0  0  0  0  0  0  0  0  0  0  0  # atno 1366 bound_to 1361
    4.5620   -9.1316    6.7133 H   0  0  0  0  0  0  0  0  0  0  0  0  # atno 2556 bound_to 2551
   -2.8135   -0.4925    0.4322 H   0  0  0  0  0  0  0  0  0  0  0  0  # atno 2749 bound_to 2745
    1.9620   -2.6377    4.0436 H   0  0  0  0  0  0  0  0  0  0  0  0  # atno 5077 bound_to 5068
   12.4206   -2.8610    9.1980 H   0  0  0  0  0  0  0  0  0  0  0  0  # atno 5157 bound_to 5152
   15.6383   -1.0856    4.6448 H   0  0  0  0  0  0  0  0  0  0  0  0  # atno 5185 bound_to 5176
    1.6760   -0.7443    2.8385 H   0  0  0  0  0  0  0  0  0  0  0  0  # atno 5712 bound_to 5703
    6.1296    4.0340    3.6712 H   0  0  0  0  0  0  0  0  0  0  0  0  # atno 8036 bound_to 8031
    1.6173   -1.2424    3.6012 LP  0  0  0  0  0  0  0  0  0  0  0  0  # atno 8267 bound_to 5068
    0.5176   -2.2676    4.2387 LP  0  0  0  0  0  0  0  0  0  0  0  0  # atno 8268 bound_to 5068
   11.2258   -1.9595    9.3547 LP  0  0  0  0  0  0  0  0  0  0  0  0  # atno 8279 bound_to 5152
   12.7526   -1.3935    9.2319 LP  0  0  0  0  0  0  0  0  0  0  0  0  # atno 8280 bound_to 5152
   16.7259   -0.1195    5.0222 LP  0  0  0  0  0  0  0  0  0  0  0  0  # atno 8281 bound_to 5176
   15.1519    0.3066    4.9341 LP  0  0  0  0  0  0  0  0  0  0  0  0  # atno 8282 bound_to 5176
    2.2296    0.6203    2.5383 LP  0  0  0  0  0  0  0  0  0  0  0  0  # atno 8283 bound_to 5703
    3.1304   -0.7395    2.4598 LP  0  0  0  0  0  0  0  0  0  0  0  0  # atno 8284 bound_to 5703
    4.6957    4.0631    3.2209 LP  0  0  0  0  0  0  0  0  0  0  0  0  # atno 8309 bound_to 8031
    5.5619    5.4167    3.5107 LP  0  0  0  0  0  0  0  0  0  0  0  0  # atno 8310 bound_to 8031
   -4.0117    0.2255   -0.1267 LP  0  0  0  0  0  0  0  0  0  0  0  0  # atno 8323 bound_to 2745
   -3.8297   -0.0886    1.4655 LP  0  0  0  0  0  0  0  0  0  0  0  0  # atno 8324 bound_to 2745
   18.6455    6.4862    2.1782 LP  0  0  0  0  0  0  0  0  0  0  0  0  # atno 8335 bound_to 1361
   17.4925    7.6401    2.2543 LP  0  0  0  0  0  0  0  0  0  0  0  0  # atno 8336 bound_to 1361
    5.2666  -10.3116    7.3259 LP  0  0  0  0  0  0  0  0  0  0  0  0  # atno 8342 bound_to 2551
    4.8063   -9.0065    8.1928 LP  0  0  0  0  0  0  0  0  0  0  0  0  # atno 8343 bound_to 2551

