
077|LMW3_p|sdf|77|dock7
  -GOLD-   6 72214193D 1   1.00000     0.00000

 16 16  0  0  0  0  0  0  0  0  2 V2000
   18.0973    2.9053    6.3224 O   0  0  0  0  0  0  0  0  0  0  0  0
   17.6599    2.5286    5.2525 C   0  0  0  0  0  0  0  0  0  0  0  0
   16.3842    2.0945    5.1754 O   0  5  0  0  0  0  0  0  0  0  0  0
   18.3537    2.4675    3.9336 C   0  0  0  0  0  0  0  0  0  0  0  0
   18.9812    3.5983    3.3891 C   0  0  0  0  0  0  0  0  0  0  0  0
   18.3892    1.2645    3.2100 C   0  0  0  0  0  0  0  0  0  0  0  0
   18.9740    4.7910    4.0547 O   0  0  0  0  0  0  0  0  0  0  0  0
   19.6291    3.5279    2.1503 C   0  0  0  0  0  0  0  0  0  0  0  0
   19.0358    1.2049    1.9792 C   0  0  0  0  0  0  0  0  0  0  0  0
   19.6566    2.3261    1.4421 C   0  0  0  0  0  0  0  0  0  0  0  0
   19.0381    0.0106    1.3220 O   0  0  0  0  0  0  0  0  0  0  0  0
   17.9338    0.4211    3.5926 H   0  0  0  0  0  0  0  0  0  0  0  0
   18.7903    5.5847    3.5918 H   0  0  0  0  0  0  0  0  0  0  0  0
   20.0872    4.3664    1.7602 H   0  0  0  0  0  0  0  0  0  0  0  0
   20.1332    2.2705    0.5285 H   0  0  0  0  0  0  0  0  0  0  0  0
   18.3792   -0.1730    0.6815 H   0  0  0  0  0  0  0  0  0  0  0  0
  1  2  2  0  0  0  0
  2  3  1  0  0  0  0
  2  4  1  0  0  0  0
  4  5  2  0  0  0  0
  4  6  1  0  0  0  0
  5  7  1  0  0  0  0
  5  8  1  0  0  0  0
  6  9  2  0  0  0  0
  6 12  1  0  0  0  0
  7 13  1  0  0  0  0
  8 10  2  0  0  0  0
  8 14  1  0  0  0  0
  9 11  1  0  0  0  0
  9 10  1  0  0  0  0
 10 15  1  0  0  0  0
 11 16  1  0  0  0  0
M  CHG  1   3  -1
M  END
>  <Code-name>
077

>  <Compound>
Gentisic acid

>  <Specie>
Chroogomphus rutilus

>  <Reference>
P. ostreatus

>  <Organism>
N/A

>  <Smiles>
OC(c(cc(cc1)O)c1O)=O

>  <MMFF94 Energy>
1.6374

>  <Total Molweight>
154.121

>  <Molweight>
154.121

>  <Monoisotopic Mass>
154.026610

>  <cLogP>
0.4533

>  <cLogS>
-1.037

>  <H-Acceptors>
4

>  <H-Donors>
3

>  <Total Surface Area>
110.06

>  <Relative PSA>
0.47556

>  <Polar Surface Area>
77.76

>  <Druglikeness>
-1.8442

>  <Mutagenic>
high

>  <Tumorigenic>
none

>  <Reproductive Effective>
high

>  <Irritant>
none

>  <Nasty Functions>


>  <Shape Index>
0.54545

>  <Molecular Flexibility>
0.28374

>  <Molecular Complexity>
0.72218

>  <Fragments>
1

>  <Non-H Atoms>
11

>  <Non-C/H Atoms>
4

>  <Metal-Atoms>
0

>  <Electronegative Atoms>
4

>  <Stereo Centers>
0

>  <Rotatable Bonds>
1

>  <Rings Closures>
1

>  <Small Rings>
1

>  <Aromatic Rings>
1

>  <Aromatic Atoms>
6

>  <sp3-Atoms>
3

>  <Symmetric atoms>
0

>  <Amides>
0

>  <Amines>
0

>  <Alkyl-Amines>
0

>  <Aromatic Amines>
0

>  <Aromatic Nitrogens>
0

>  <Basic Nitrogens>
0

>  <Acidic Oxygens>
1

>  <Stereo Configuration>


> <Gold.Version>
5.8.1

> <Gold.Id.Protein>
ID_2|Prot_COX2_5IKQ_Alig|mol2

> <Gold.Goldscore.Fitness>
42.0402

> <Gold.Goldscore.Internal.Vdw>
0.8001

> <Gold.Goldscore.Internal.Torsion>
-7.7649

> <Gold.Goldscore.External.Vdw>
20.9943

> <Gold.Goldscore.Internal.HBond>
0.0000

> <Gold.Goldscore.External.HBond>
18.3053

> <Gold.Goldscore.Internal.Correction>
-1.8326

> <Gold.Goldscore.Hbonds>
donor molecule, donor type, donor heavy atom, donor atom, acceptor molecule, acceptor atom, score
      P1  H  1377  1389       L1     3  0.98
      P1  H  5176  5185       L1     3  0.26
      L1  H     7    13       P1  1361  1.00
      L1  H    11    16       P1  7952  0.82

> <Gold.Goldscore.Internal.Vdw.Weighted>
0.8001

> <Gold.Goldscore.Internal.Torsion.Weighted>
-7.7649

> <Gold.Goldscore.External.Vdw.Weighted>
28.8672

> <Gold.Goldscore.Internal.HBond.Weighted>
0.0000

> <Gold.Goldscore.External.HBond.Weighted>
18.3053

> <Gold.Goldscore.Internal.Correction.Weighted>
-1.8326

> <Gold.Protein.RotatedTorsions>
[ 5077 5068 5067 5065 ] final -117.99 input  179.94 | X-H torsion
[ 5157 5152 5151 5148 ] final   87.17 input -179.92 | X-H torsion
[ 5185 5176 5175 5173 ] final -147.83 input -179.99 | X-H torsion
[ 5712 5703 5702 5700 ] final  104.54 input  180.00 | X-H torsion
[ 8036 8031 8030 8027 ] final -163.77 input -179.94 | X-H torsion
[ 2749 2745 2743 2740 ] final   97.67 input  -60.05 | X-H torsion
[ 1366 1361 1360 1357 ] final    1.63 input  -60.09 | X-H torsion
[ 2556 2551 2550 2547 ] final -164.96 input   59.97 | X-H torsion

> <Gold.Protein.ActiveResidues>
 PRO86   VAL89   HIS90   LEU93   THR94   ILE112  MET113  TYR115  VAL116  LEU117 
 THR118  SER119  ARG120  SER121  LEU123  ILE124  GLN192  SER194  PHE198  PHE201 
 ALA202  GLN203  PHE205  THR206  PHE209  PHE210  VAL228  ILE341  ILE343  VAL344 
 ILE345  GLU346  ASP347  TYR348  VAL349  GLN350  HIS351  LEU352  SER353  GLY354 
 TYR355  PHE357  LEU359  LYS360  GLU380  PHE381  ASN382  THR383  LEU384  TYR385 
 HIS386  TRP387  LEU390  VAL434  LEU507  ARG513  ALA516  ILE517  PHE518  GLY519 
 GLU520  THR521  MET522  VAL523  GLU524  VAL525  GLY526  ALA527  PRO528  PHE529 
 SER530  LEU531  LYS532  GLY533  LEU534  MET535  COH609 

> <Gold.Protein.RotatedAtoms>
   17.6311    7.6222    2.3532 H   0  0  0  0  0  0  0  0  0  0  0  0  # atno 1366 bound_to 1361
    4.5305   -9.0370    6.7870 H   0  0  0  0  0  0  0  0  0  0  0  0  # atno 2556 bound_to 2551
   -3.6884    0.0917   -0.1522 H   0  0  0  0  0  0  0  0  0  0  0  0  # atno 2749 bound_to 2745
    2.1492   -2.3315    3.8897 H   0  0  0  0  0  0  0  0  0  0  0  0  # atno 5077 bound_to 5068
   12.8823   -2.4061    9.1643 H   0  0  0  0  0  0  0  0  0  0  0  0  # atno 5157 bound_to 5152
   16.0270    0.3674    5.1145 H   0  0  0  0  0  0  0  0  0  0  0  0  # atno 5185 bound_to 5176
    3.0062   -0.6171    2.4326 H   0  0  0  0  0  0  0  0  0  0  0  0  # atno 5712 bound_to 5703
    5.9598    3.8452    3.6138 H   0  0  0  0  0  0  0  0  0  0  0  0  # atno 8036 bound_to 8031
    1.1640   -1.2102    3.7071 LP  0  0  0  0  0  0  0  0  0  0  0  0  # atno 8267 bound_to 5068
    0.7468   -2.6664    4.3171 LP  0  0  0  0  0  0  0  0  0  0  0  0  # atno 8268 bound_to 5068
   11.4174   -2.7095    9.3294 LP  0  0  0  0  0  0  0  0  0  0  0  0  # atno 8279 bound_to 5152
   12.0088   -1.1877    9.2975 LP  0  0  0  0  0  0  0  0  0  0  0  0  # atno 8280 bound_to 5152
   14.9239   -0.5458    4.6585 LP  0  0  0  0  0  0  0  0  0  0  0  0  # atno 8281 bound_to 5176
   16.4872   -1.0117    4.7338 LP  0  0  0  0  0  0  0  0  0  0  0  0  # atno 8282 bound_to 5176
    1.6111   -0.8847    2.9233 LP  0  0  0  0  0  0  0  0  0  0  0  0  # atno 8283 bound_to 5703
    2.1524    0.6129    2.5619 LP  0  0  0  0  0  0  0  0  0  0  0  0  # atno 8284 bound_to 5703
    4.6132    4.3620    3.1901 LP  0  0  0  0  0  0  0  0  0  0  0  0  # atno 8309 bound_to 8031
    5.8481    5.3443    3.6104 LP  0  0  0  0  0  0  0  0  0  0  0  0  # atno 8310 bound_to 8031
   -4.0749    0.0751    1.3017 LP  0  0  0  0  0  0  0  0  0  0  0  0  # atno 8323 bound_to 2745
   -2.7186   -0.6378    0.7370 LP  0  0  0  0  0  0  0  0  0  0  0  0  # atno 8324 bound_to 2745
   18.5000    7.3107    3.5414 LP  0  0  0  0  0  0  0  0  0  0  0  0  # atno 8335 bound_to 1361
   18.6067    6.4989    2.1286 LP  0  0  0  0  0  0  0  0  0  0  0  0  # atno 8336 bound_to 1361
    5.2387  -10.3049    7.1808 LP  0  0  0  0  0  0  0  0  0  0  0  0  # atno 8342 bound_to 2551
    4.8719   -9.1263    8.2498 LP  0  0  0  0  0  0  0  0  0  0  0  0  # atno 8343 bound_to 2551

