
007|LMW3_p|sdf|7|dock82
  -GOLD-   6 62220 73D 1   1.00000     0.00000

 68 71  0  0  0  0  0  0  0  0  1 V2000
   19.2635    3.1282    3.2428 O   0  0  0  0  0  0  0  0  0  0  0  0
   18.9550    2.4785    4.4822 C   0  0  2  0  0  0  0  0  0  0  0  0
   18.3874    1.0804    4.2012 C   0  0  0  0  0  0  0  0  0  0  0  0
   18.0410    3.3995    5.3009 C   0  0  0  0  0  0  0  0  0  0  0  0
   16.8851    1.0942    4.0515 C   0  0  0  0  0  0  0  0  0  0  0  0
   16.8844    2.6664    5.9782 C   0  0  0  0  0  0  0  0  0  0  0  0
   16.1156    1.8560    4.9564 C   0  0  0  0  0  0  0  0  0  0  0  0
   16.2580    0.3192    3.0779 C   0  0  0  0  0  0  0  0  0  0  0  0
   14.7036    1.8143    4.8977 C   0  0  0  0  0  0  0  0  0  0  0  0
   14.8701    0.3117    2.9886 C   0  0  0  0  0  0  0  0  0  0  0  0
   14.0819    1.0540    3.8851 C   0  0  0  0  0  0  0  0  0  0  0  0
   13.8717    2.6124    5.8751 C   0  0  0  0  0  0  0  0  0  0  0  0
   12.5765    0.9856    3.7280 C   0  0  2  0  0  0  0  0  0  0  0  0
   12.3954    2.2196    5.9132 C   0  0  0  0  0  0  0  0  0  0  0  0
   11.7717    2.0488    4.5034 C   0  0  2  0  0  0  0  0  0  0  0  0
   12.0189   -0.3662    4.2091 C   0  0  0  0  0  0  0  0  0  0  0  0
   10.3512    1.4021    4.6362 C   0  0  2  0  0  0  0  0  0  0  0  0
   11.7640    3.4083    3.7846 C   0  0  0  0  0  0  0  0  0  0  0  0
   10.6602   -0.0916    4.8557 C   0  0  0  0  0  0  0  0  0  0  0  0
    9.3193    1.6589    3.4906 C   0  0  1  0  0  0  0  0  0  0  0  0
    8.4572    0.4748    3.1149 C   0  0  0  0  0  0  0  0  0  0  0  0
    8.3944    2.8347    3.8458 C   0  0  0  0  0  0  0  0  0  0  0  0
    8.4408   -0.0898    1.8962 C   0  0  0  0  0  0  0  0  0  0  0  0
    7.5723   -1.2736    1.5262 C   0  0  1  0  0  0  0  0  0  0  0  0
    6.1633   -0.8157    1.0544 C   0  0  0  0  0  0  0  0  0  0  0  0
    8.3142   -2.0913    0.4624 C   0  0  0  0  0  0  0  0  0  0  0  0
    6.2390    0.0083   -0.2394 C   0  0  0  0  0  0  0  0  0  0  0  0
    5.4361    0.0111    2.1212 C   0  0  0  0  0  0  0  0  0  0  0  0
   19.7045    3.9734    3.4218 H   0  0  0  0  0  0  0  0  0  0  0  0
   19.8267    2.3126    5.0799 H   0  0  0  0  0  0  0  0  0  0  0  0
   18.6468    0.4337    5.0131 H   0  0  0  0  0  0  0  0  0  0  0  0
   18.8062    0.7352    3.2791 H   0  0  0  0  0  0  0  0  0  0  0  0
   17.6343    4.1417    4.6462 H   0  0  0  0  0  0  0  0  0  0  0  0
   18.6399    3.8271    6.0776 H   0  0  0  0  0  0  0  0  0  0  0  0
   16.2284    3.3807    6.4303 H   0  0  0  0  0  0  0  0  0  0  0  0
   17.2755    2.0085    6.7260 H   0  0  0  0  0  0  0  0  0  0  0  0
   16.8216   -0.2475    2.4251 H   0  0  0  0  0  0  0  0  0  0  0  0
   14.4116   -0.2478    2.2526 H   0  0  0  0  0  0  0  0  0  0  0  0
   13.9365    3.6456    5.6046 H   0  0  0  0  0  0  0  0  0  0  0  0
   14.2670    2.4115    6.8488 H   0  0  0  0  0  0  0  0  0  0  0  0
   12.4512    1.1497    2.6781 H   0  0  0  0  0  0  0  0  0  0  0  0
   11.8543    2.9814    6.4345 H   0  0  0  0  0  0  0  0  0  0  0  0
   12.3313    1.2721    6.4062 H   0  0  0  0  0  0  0  0  0  0  0  0
   12.6837   -0.8030    4.9248 H   0  0  0  0  0  0  0  0  0  0  0  0
   11.9190   -1.0485    3.3909 H   0  0  0  0  0  0  0  0  0  0  0  0
    9.8195    1.8685    5.4391 H   0  0  0  0  0  0  0  0  0  0  0  0
   11.1940    4.1107    4.3560 H   0  0  0  0  0  0  0  0  0  0  0  0
   11.3246    3.2968    2.8154 H   0  0  0  0  0  0  0  0  0  0  0  0
   12.7682    3.7633    3.6822 H   0  0  0  0  0  0  0  0  0  0  0  0
   10.7007   -0.3086    5.9027 H   0  0  0  0  0  0  0  0  0  0  0  0
    9.8995   -0.7069    4.4224 H   0  0  0  0  0  0  0  0  0  0  0  0
    9.9285    1.8765    2.6383 H   0  0  0  0  0  0  0  0  0  0  0  0
    7.8424    0.0751    3.8410 H   0  0  0  0  0  0  0  0  0  0  0  0
    8.9836    3.7079    4.0334 H   0  0  0  0  0  0  0  0  0  0  0  0
    7.8285    2.5916    4.7207 H   0  0  0  0  0  0  0  0  0  0  0  0
    7.7274    3.0227    3.0305 H   0  0  0  0  0  0  0  0  0  0  0  0
    9.0566    0.3067    1.1691 H   0  0  0  0  0  0  0  0  0  0  0  0
    7.4001   -1.8913    2.3828 H   0  0  0  0  0  0  0  0  0  0  0  0
    5.6102   -1.7138    0.8741 H   0  0  0  0  0  0  0  0  0  0  0  0
    8.5861   -1.4533   -0.3525 H   0  0  0  0  0  0  0  0  0  0  0  0
    7.6774   -2.8737    0.1057 H   0  0  0  0  0  0  0  0  0  0  0  0
    9.1968   -2.5176    0.8916 H   0  0  0  0  0  0  0  0  0  0  0  0
    6.9253    0.8184   -0.1066 H   0  0  0  0  0  0  0  0  0  0  0  0
    5.2695    0.3966   -0.4722 H   0  0  0  0  0  0  0  0  0  0  0  0
    6.5750   -0.6161   -1.0408 H   0  0  0  0  0  0  0  0  0  0  0  0
    5.4514   -0.5157    3.0524 H   0  0  0  0  0  0  0  0  0  0  0  0
    4.4224    0.1714    1.8187 H   0  0  0  0  0  0  0  0  0  0  0  0
    5.9271    0.9548    2.2371 H   0  0  0  0  0  0  0  0  0  0  0  0
  1  2  1  0  0  0  0
  1 29  1  0  0  0  0
  2  3  1  0  0  0  0
  2  4  1  0  0  0  0
  2 30  1  0  0  0  0
  3  5  1  0  0  0  0
  3 31  1  0  0  0  0
  3 32  1  0  0  0  0
  4  6  1  0  0  0  0
  4 33  1  0  0  0  0
  4 34  1  0  0  0  0
  5  7  2  0  0  0  0
  5  8  1  0  0  0  0
  6  7  1  0  0  0  0
  6 35  1  0  0  0  0
  6 36  1  0  0  0  0
  7  9  1  0  0  0  0
  8 10  2  0  0  0  0
  8 37  1  0  0  0  0
  9 11  2  0  0  0  0
  9 12  1  0  0  0  0
 10 11  1  0  0  0  0
 10 38  1  0  0  0  0
 11 13  1  0  0  0  0
 12 14  1  0  0  0  0
 12 39  1  0  0  0  0
 12 40  1  0  0  0  0
 13 15  1  0  0  0  0
 13 16  1  0  0  0  0
 13 41  1  0  0  0  0
 14 15  1  0  0  0  0
 14 42  1  0  0  0  0
 14 43  1  0  0  0  0
 15 17  1  0  0  0  0
 15 18  1  0  0  0  0
 16 19  1  0  0  0  0
 16 44  1  0  0  0  0
 16 45  1  0  0  0  0
 17 20  1  0  0  0  0
 17 19  1  0  0  0  0
 17 46  1  0  0  0  0
 18 47  1  0  0  0  0
 18 48  1  0  0  0  0
 18 49  1  0  0  0  0
 19 50  1  0  0  0  0
 19 51  1  0  0  0  0
 20 21  1  0  0  0  0
 20 22  1  0  0  0  0
 20 52  1  0  0  0  0
 21 23  2  0  0  0  0
 21 53  1  0  0  0  0
 22 54  1  0  0  0  0
 22 55  1  0  0  0  0
 22 56  1  0  0  0  0
 23 24  1  0  0  0  0
 23 57  1  0  0  0  0
 24 25  1  0  0  0  0
 24 26  1  0  0  0  0
 24 58  1  0  0  0  0
 25 27  1  0  0  0  0
 25 28  1  0  0  0  0
 25 59  1  0  0  0  0
 26 60  1  0  0  0  0
 26 61  1  0  0  0  0
 26 62  1  0  0  0  0
 27 63  1  0  0  0  0
 27 64  1  0  0  0  0
 27 65  1  0  0  0  0
 28 66  1  0  0  0  0
 28 67  1  0  0  0  0
 28 68  1  0  0  0  0
M  END
>  <Code-name>
007

>  <Compound>
(22E)-19-norergosta-5,7,9,22-tetraen-3Î²-ol

>  <Specie>
Pleurotus eryngii

>  <Reference>
KIKUCHI et al., 2019

>  <Organism>
Aromatase Inhibitor

>  <Smiles>
CC(C)[C@@H](C)/C=C/[C@@H](C)[C@@H](CC1)[C@@](C)(CC2)[C@H]1c1c2c(CC[C@@H](C2)O)c2cc1

>  <MMFF94 Energy>
94.512

>  <Total Molweight>
380.614

>  <Molweight>
380.614

>  <Monoisotopic Mass>
380.307915

>  <cLogP>
7.3937

>  <cLogS>
-6.224

>  <H-Acceptors>
1

>  <H-Donors>
1

>  <Total Surface Area>
308.64

>  <Relative PSA>
0.042444

>  <Polar Surface Area>
20.23

>  <Druglikeness>
-1.6216

>  <Mutagenic>
none

>  <Tumorigenic>
none

>  <Reproductive Effective>
none

>  <Irritant>
none

>  <Nasty Functions>


>  <Shape Index>
0.57143

>  <Molecular Flexibility>
0.28797

>  <Molecular Complexity>
0.91691

>  <Fragments>
1

>  <Non-H Atoms>
28

>  <Non-C/H Atoms>
1

>  <Metal-Atoms>
0

>  <Electronegative Atoms>
1

>  <Stereo Centers>
6

>  <Rotatable Bonds>
4

>  <Rings Closures>
4

>  <Small Rings>
4

>  <Aromatic Rings>
1

>  <Aromatic Atoms>
6

>  <sp3-Atoms>
20

>  <Symmetric atoms>
1

>  <Amides>
0

>  <Amines>
0

>  <Alkyl-Amines>
0

>  <Aromatic Amines>
0

>  <Aromatic Nitrogens>
0

>  <Basic Nitrogens>
0

>  <Acidic Oxygens>
0

>  <Stereo Configuration>
this enantiomer

> <Gold.Version>
5.8.1

> <Gold.Id.Protein>
ID_2|Prot_COX2_5IKQ_Alig|mol2

> <Gold.Goldscore.Fitness>
24.5941

> <Gold.Goldscore.Internal.Vdw>
-14.8561

> <Gold.Goldscore.Internal.Torsion>
-3.0948

> <Gold.Goldscore.External.Vdw>
24.4754

> <Gold.Goldscore.Internal.HBond>
0.0000

> <Gold.Goldscore.External.HBond>
0.0252

> <Gold.Goldscore.Internal.Correction>
-8.8660

> <Gold.Goldscore.Hbonds>
donor molecule, donor type, donor heavy atom, donor atom, acceptor molecule, acceptor atom, score
      P1  H  1361  1366       L1     1  0.01

> <Gold.Goldscore.Internal.Vdw.Weighted>
-14.8561

> <Gold.Goldscore.Internal.Torsion.Weighted>
-3.0948

> <Gold.Goldscore.External.Vdw.Weighted>
33.6537

> <Gold.Goldscore.Internal.HBond.Weighted>
0.0000

> <Gold.Goldscore.External.HBond.Weighted>
0.0252

> <Gold.Goldscore.Internal.Correction.Weighted>
-8.8660

> <Gold.Protein.RotatedTorsions>
[ 5077 5068 5067 5065 ] final -109.69 input  179.94 | X-H torsion
[ 5157 5152 5151 5148 ] final  178.73 input -179.92 | X-H torsion
[ 5185 5176 5175 5173 ] final   14.18 input -179.99 | X-H torsion
[ 5712 5703 5702 5700 ] final -109.05 input  180.00 | X-H torsion
[ 8036 8031 8030 8027 ] final  130.38 input -179.94 | X-H torsion
[ 2749 2745 2743 2740 ] final  -43.57 input  -60.05 | X-H torsion
[ 1366 1361 1360 1357 ] final  155.89 input  -60.09 | X-H torsion
[ 2556 2551 2550 2547 ] final  -66.63 input   59.97 | X-H torsion

> <Gold.Protein.ActiveResidues>
 PRO86   VAL89   HIS90   LEU93   THR94   ILE112  MET113  TYR115  VAL116  LEU117 
 THR118  SER119  ARG120  SER121  LEU123  ILE124  GLN192  SER194  PHE198  PHE201 
 ALA202  GLN203  PHE205  THR206  PHE209  PHE210  VAL228  ILE341  ILE343  VAL344 
 ILE345  GLU346  ASP347  TYR348  VAL349  GLN350  HIS351  LEU352  SER353  GLY354 
 TYR355  PHE357  LEU359  LYS360  GLU380  PHE381  ASN382  THR383  LEU384  TYR385 
 HIS386  TRP387  LEU390  VAL434  LEU507  ARG513  ALA516  ILE517  PHE518  GLY519 
 GLU520  THR521  MET522  VAL523  GLU524  VAL525  GLY526  ALA527  PRO528  PHE529 
 SER530  LEU531  LYS532  GLY533  LEU534  MET535  COH609 

> <Gold.Protein.RotatedAtoms>
   18.7855    6.6345    2.6112 H   0  0  0  0  0  0  0  0  0  0  0  0  # atno 1366 bound_to 1361
    4.7021   -8.9720    7.9688 H   0  0  0  0  0  0  0  0  0  0  0  0  # atno 2556 bound_to 2551
   -3.7505   -0.0663    1.3283 H   0  0  0  0  0  0  0  0  0  0  0  0  # atno 2749 bound_to 2745
    2.1123   -2.4305    3.9334 H   0  0  0  0  0  0  0  0  0  0  0  0  # atno 5077 bound_to 5068
   12.4145   -1.3750    9.2164 H   0  0  0  0  0  0  0  0  0  0  0  0  # atno 5157 bound_to 5152
   15.8613   -1.1140    4.6664 H   0  0  0  0  0  0  0  0  0  0  0  0  # atno 5185 bound_to 5176
    1.8484    0.3274    2.6426 H   0  0  0  0  0  0  0  0  0  0  0  0  # atno 5712 bound_to 5703
    5.1517    3.7845    3.3345 H   0  0  0  0  0  0  0  0  0  0  0  0  # atno 8036 bound_to 8031
    1.2944   -1.1967    3.6688 LP  0  0  0  0  0  0  0  0  0  0  0  0  # atno 8267 bound_to 5068
    0.6605   -2.5614    4.3031 LP  0  0  0  0  0  0  0  0  0  0  0  0  # atno 8268 bound_to 5068
   12.7586   -2.8402    9.2139 LP  0  0  0  0  0  0  0  0  0  0  0  0  # atno 8279 bound_to 5152
   11.2271   -2.2901    9.3506 LP  0  0  0  0  0  0  0  0  0  0  0  0  # atno 8280 bound_to 5152
   16.6138    0.1207    5.0762 LP  0  0  0  0  0  0  0  0  0  0  0  0  # atno 8281 bound_to 5176
   14.9962    0.1005    4.8540 LP  0  0  0  0  0  0  0  0  0  0  0  0  # atno 8282 bound_to 5176
    3.2092   -0.2492    2.3702 LP  0  0  0  0  0  0  0  0  0  0  0  0  # atno 8283 bound_to 5703
    1.9439   -1.1562    2.8630 LP  0  0  0  0  0  0  0  0  0  0  0  0  # atno 8284 bound_to 5703
    5.0406    5.2837    3.3312 LP  0  0  0  0  0  0  0  0  0  0  0  0  # atno 8309 bound_to 8031
    6.3902    4.4954    3.8044 LP  0  0  0  0  0  0  0  0  0  0  0  0  # atno 8310 bound_to 8031
   -2.7040   -0.6006    0.3888 LP  0  0  0  0  0  0  0  0  0  0  0  0  # atno 8323 bound_to 2745
   -4.0151    0.2271   -0.1233 LP  0  0  0  0  0  0  0  0  0  0  0  0  # atno 8324 bound_to 2745
   17.6438    7.3227    1.9134 LP  0  0  0  0  0  0  0  0  0  0  0  0  # atno 8335 bound_to 1361
   18.0820    7.6684    3.4480 LP  0  0  0  0  0  0  0  0  0  0  0  0  # atno 8336 bound_to 1361
    4.6160   -9.2233    6.4877 LP  0  0  0  0  0  0  0  0  0  0  0  0  # atno 8342 bound_to 2551
    5.2892  -10.2858    7.5291 LP  0  0  0  0  0  0  0  0  0  0  0  0  # atno 8343 bound_to 2551

