
082|LMW3_p|sdf|82|dock288
  -GOLD-   6 72217463D 1   1.00000     0.00000

 33 35  0  0  0  0  0  0  0  0  1 V2000
    8.0649    0.2516    4.3920 O   0  0  0  0  0  0  0  0  0  0  0  0
    8.3512   -0.6505    3.6139 C   0  0  0  0  0  0  0  0  0  0  0  0
    9.3526   -1.6935    3.9988 C   0  0  0  0  0  0  0  0  0  0  0  0
    7.7471   -0.7724    2.2652 C   0  0  0  0  0  0  0  0  0  0  0  0
    9.9290   -1.5869    5.2547 O   0  0  0  0  0  0  0  0  0  0  0  0
    9.6441   -2.6596    3.1069 C   0  0  0  0  0  0  0  0  0  0  0  0
    8.1679   -1.8272    1.4547 C   0  0  0  0  0  0  0  0  0  0  0  0
    6.7819    0.1188    1.7687 C   0  0  0  0  0  0  0  0  0  0  0  0
    9.1011   -2.7527    1.8412 O   0  0  0  0  0  0  0  0  0  0  0  0
   10.6070   -3.7387    3.3818 C   0  0  0  0  0  0  0  0  0  0  0  0
    7.6422   -1.9953    0.1718 C   0  0  0  0  0  0  0  0  0  0  0  0
    6.3382    1.1644    2.5273 O   0  0  0  0  0  0  0  0  0  0  0  0
    6.2512   -0.0453    0.4842 C   0  0  0  0  0  0  0  0  0  0  0  0
   11.9374   -3.4419    3.7209 C   0  0  0  0  0  0  0  0  0  0  0  0
   10.1878   -5.0782    3.3265 C   0  0  0  0  0  0  0  0  0  0  0  0
    6.6894   -1.1043   -0.3026 C   0  0  0  0  0  0  0  0  0  0  0  0
   12.8314   -4.4771    3.9675 C   0  0  0  0  0  0  0  0  0  0  0  0
   11.0944   -6.0968    3.5979 C   0  0  0  0  0  0  0  0  0  0  0  0
    6.2049   -1.3077   -1.5600 O   0  0  0  0  0  0  0  0  0  0  0  0
   14.1280   -4.1774    4.2686 O   0  0  0  0  0  0  0  0  0  0  0  0
   12.4192   -5.8012    3.8916 C   0  0  0  0  0  0  0  0  0  0  0  0
   10.6588   -7.3896    3.5910 O   0  0  0  0  0  0  0  0  0  0  0  0
   13.3436   -6.7912    4.0787 O   0  0  0  0  0  0  0  0  0  0  0  0
    9.6574   -0.9062    5.8384 H   0  0  0  0  0  0  0  0  0  0  0  0
    7.9606   -2.7781   -0.4206 H   0  0  0  0  0  0  0  0  0  0  0  0
    5.5792    1.6460    2.2630 H   0  0  0  0  0  0  0  0  0  0  0  0
    5.5421    0.6128    0.1249 H   0  0  0  0  0  0  0  0  0  0  0  0
   12.2494   -2.4604    3.7866 H   0  0  0  0  0  0  0  0  0  0  0  0
    9.2104   -5.3055    3.0854 H   0  0  0  0  0  0  0  0  0  0  0  0
    6.5193   -2.0263   -2.0727 H   0  0  0  0  0  0  0  0  0  0  0  0
   14.3774   -3.2894    4.4337 H   0  0  0  0  0  0  0  0  0  0  0  0
   10.6842   -7.8968    4.3783 H   0  0  0  0  0  0  0  0  0  0  0  0
   13.1253   -7.6801    3.8781 H   0  0  0  0  0  0  0  0  0  0  0  0
  1  2  2  0  0  0  0
  2  3  1  0  0  0  0
  2  4  1  0  0  0  0
  3  5  1  0  0  0  0
  3  6  2  0  0  0  0
  4  7  2  0  0  0  0
  4  8  1  0  0  0  0
  5 24  1  0  0  0  0
  6  9  1  0  0  0  0
  6 10  1  0  0  0  0
  7 11  1  0  0  0  0
  7  9  1  0  0  0  0
  8 12  1  0  0  0  0
  8 13  2  0  0  0  0
 10 14  2  0  0  0  0
 10 15  1  0  0  0  0
 11 16  2  0  0  0  0
 11 25  1  0  0  0  0
 12 26  1  0  0  0  0
 13 16  1  0  0  0  0
 13 27  1  0  0  0  0
 14 17  1  0  0  0  0
 14 28  1  0  0  0  0
 15 18  2  0  0  0  0
 15 29  1  0  0  0  0
 16 19  1  0  0  0  0
 17 20  1  0  0  0  0
 17 21  2  0  0  0  0
 18 22  1  0  0  0  0
 18 21  1  0  0  0  0
 19 30  1  0  0  0  0
 20 31  1  0  0  0  0
 21 23  1  0  0  0  0
 22 32  1  0  0  0  0
 23 33  1  0  0  0  0
M  END
>  <Code-name>
082

>  <Compound>
Myrecetin - flavonoide

>  <Specie>
Craterellus cornucopioides

>  <Reference>
Palacios et al., (2011)

>  <Organism>
Antioxidant Activity

>  <Smiles>
Oc(cc1O)cc(OC(c(cc2O)cc(O)c2O)=C2O)c1C2=O

>  <MMFF94 Energy>
66.921

>  <Total Molweight>
318.236

>  <Molweight>
318.236

>  <Monoisotopic Mass>
318.037570

>  <cLogP>
1.1445

>  <cLogS>
-2.195

>  <H-Acceptors>
8

>  <H-Donors>
6

>  <Total Surface Area>
208.29

>  <Relative PSA>
0.48797

>  <Polar Surface Area>
147.68

>  <Druglikeness>
-0.082832

>  <Mutagenic>
high

>  <Tumorigenic>
none

>  <Reproductive Effective>
none

>  <Irritant>
none

>  <Nasty Functions>


>  <Shape Index>
0.47826

>  <Molecular Flexibility>
0.3008

>  <Molecular Complexity>
0.85557

>  <Fragments>
1

>  <Non-H Atoms>
23

>  <Non-C/H Atoms>
8

>  <Metal-Atoms>
0

>  <Electronegative Atoms>
8

>  <Stereo Centers>
0

>  <Rotatable Bonds>
1

>  <Rings Closures>
3

>  <Small Rings>
3

>  <Aromatic Rings>
2

>  <Aromatic Atoms>
12

>  <sp3-Atoms>
7

>  <Symmetric atoms>
3

>  <Amides>
0

>  <Amines>
0

>  <Alkyl-Amines>
0

>  <Aromatic Amines>
0

>  <Aromatic Nitrogens>
0

>  <Basic Nitrogens>
0

>  <Acidic Oxygens>
0

>  <Stereo Configuration>


> <Gold.Version>
5.8.1

> <Gold.Id.Protein>
ID_2|Prot_COX2_5IKQ_Alig|mol2

> <Gold.Goldscore.Fitness>
60.4881

> <Gold.Goldscore.Internal.Vdw>
-2.1608

> <Gold.Goldscore.Internal.Torsion>
-6.8597

> <Gold.Goldscore.External.Vdw>
44.4264

> <Gold.Goldscore.Internal.HBond>
0.0000

> <Gold.Goldscore.External.HBond>
2.3455

> <Gold.Goldscore.Internal.Correction>
-6.0768

> <Gold.Goldscore.Hbonds>
donor molecule, donor type, donor heavy atom, donor atom, acceptor molecule, acceptor atom, score
      P1  H  5703  5712       L1    12  0.11
      P1  H  7836  7844       L1    22  0.01
      L1  H    20    31       P1  5176  0.17
      L1  H    22    32       P1  2530  0.88

> <Gold.Goldscore.Internal.Vdw.Weighted>
-2.1608

> <Gold.Goldscore.Internal.Torsion.Weighted>
-6.8597

> <Gold.Goldscore.External.Vdw.Weighted>
61.0863

> <Gold.Goldscore.Internal.HBond.Weighted>
0.0000

> <Gold.Goldscore.External.HBond.Weighted>
2.3455

> <Gold.Goldscore.Internal.Correction.Weighted>
-6.0768

> <Gold.Protein.RotatedTorsions>
[ 5077 5068 5067 5065 ] final  141.38 input  179.94 | X-H torsion
[ 5157 5152 5151 5148 ] final  -40.16 input -179.92 | X-H torsion
[ 5185 5176 5175 5173 ] final   71.16 input -179.99 | X-H torsion
[ 5712 5703 5702 5700 ] final  145.69 input  180.00 | X-H torsion
[ 8036 8031 8030 8027 ] final -157.81 input -179.94 | X-H torsion
[ 2749 2745 2743 2740 ] final    1.70 input  -60.05 | X-H torsion
[ 1366 1361 1360 1357 ] final   57.40 input  -60.09 | X-H torsion
[ 2556 2551 2550 2547 ] final -170.75 input   59.97 | X-H torsion

> <Gold.Protein.ActiveResidues>
 PRO86   VAL89   HIS90   LEU93   THR94   ILE112  MET113  TYR115  VAL116  LEU117 
 THR118  SER119  ARG120  SER121  LEU123  ILE124  GLN192  SER194  PHE198  PHE201 
 ALA202  GLN203  PHE205  THR206  PHE209  PHE210  VAL228  ILE341  ILE343  VAL344 
 ILE345  GLU346  ASP347  TYR348  VAL349  GLN350  HIS351  LEU352  SER353  GLY354 
 TYR355  PHE357  LEU359  LYS360  GLU380  PHE381  ASN382  THR383  LEU384  TYR385 
 HIS386  TRP387  LEU390  VAL434  LEU507  ARG513  ALA516  ILE517  PHE518  GLY519 
 GLU520  THR521  MET522  VAL523  GLU524  VAL525  GLY526  ALA527  PRO528  PHE529 
 SER530  LEU531  LYS532  GLY533  LEU534  MET535  COH609 

> <Gold.Protein.RotatedAtoms>
   17.9343    7.1092    1.9155 H   0  0  0  0  0  0  0  0  0  0  0  0  # atno 1366 bound_to 1361
    4.5500   -9.0968    6.7378 H   0  0  0  0  0  0  0  0  0  0  0  0  # atno 2556 bound_to 2551
   -4.1246    0.2027    0.9317 H   0  0  0  0  0  0  0  0  0  0  0  0  # atno 2749 bound_to 2745
    1.4710   -1.3376    3.7220 H   0  0  0  0  0  0  0  0  0  0  0  0  # atno 5077 bound_to 5068
   11.4755   -2.5315    9.2823 H   0  0  0  0  0  0  0  0  0  0  0  0  # atno 5157 bound_to 5152
   15.1892   -0.7773    4.6733 H   0  0  0  0  0  0  0  0  0  0  0  0  # atno 5185 bound_to 5176
    3.0026   -0.0682    2.3592 H   0  0  0  0  0  0  0  0  0  0  0  0  # atno 5712 bound_to 5703
    6.0193    3.8979    3.6340 H   0  0  0  0  0  0  0  0  0  0  0  0  # atno 8036 bound_to 8031
    0.5708   -2.4085    4.2735 LP  0  0  0  0  0  0  0  0  0  0  0  0  # atno 8267 bound_to 5068
    2.1521   -2.6584    3.9516 LP  0  0  0  0  0  0  0  0  0  0  0  0  # atno 8268 bound_to 5068
   12.1310   -1.1768    9.2872 LP  0  0  0  0  0  0  0  0  0  0  0  0  # atno 8279 bound_to 5152
   12.9777   -2.5703    9.1986 LP  0  0  0  0  0  0  0  0  0  0  0  0  # atno 8280 bound_to 5152
   16.6828   -0.7443    4.8368 LP  0  0  0  0  0  0  0  0  0  0  0  0  # atno 8281 bound_to 5176
   15.7341    0.5614    5.0852 LP  0  0  0  0  0  0  0  0  0  0  0  0  # atno 8282 bound_to 5176
    2.1644   -1.2318    2.8088 LP  0  0  0  0  0  0  0  0  0  0  0  0  # atno 8283 bound_to 5703
    1.6034    0.3012    2.7646 LP  0  0  0  0  0  0  0  0  0  0  0  0  # atno 8284 bound_to 5703
    4.6289    4.2653    3.1962 LP  0  0  0  0  0  0  0  0  0  0  0  0  # atno 8309 bound_to 8031
    5.7610    5.3778    3.5800 LP  0  0  0  0  0  0  0  0  0  0  0  0  # atno 8310 bound_to 8031
   -2.8636   -0.6009    1.0974 LP  0  0  0  0  0  0  0  0  0  0  0  0  # atno 8323 bound_to 2745
   -3.4075   -0.0948   -0.3569 LP  0  0  0  0  0  0  0  0  0  0  0  0  # atno 8324 bound_to 2745
   17.8333    7.8071    3.2447 LP  0  0  0  0  0  0  0  0  0  0  0  0  # atno 8335 bound_to 1361
   18.9107    6.6162    2.9488 LP  0  0  0  0  0  0  0  0  0  0  0  0  # atno 8336 bound_to 1361
    5.2577  -10.3117    7.2739 LP  0  0  0  0  0  0  0  0  0  0  0  0  # atno 8342 bound_to 2551
    4.8296   -9.0480    8.2155 LP  0  0  0  0  0  0  0  0  0  0  0  0  # atno 8343 bound_to 2551

