
083|LMW3_p|sdf|83|dock1
  -GOLD-   6 72218283D 1   1.00000     0.00000

 29 31  0  0  0  0  0  0  0  0  1 V2000
    8.2249    0.1317    4.4207 O   0  0  0  0  0  0  0  0  0  0  0  0
    8.4603   -0.7445    3.5999 C   0  0  0  0  0  0  0  0  0  0  0  0
    7.8311   -0.8368    2.2622 C   0  0  0  0  0  0  0  0  0  0  0  0
    9.4346   -1.7959    3.9428 C   0  0  0  0  0  0  0  0  0  0  0  0
    8.2100   -1.9015    1.4398 C   0  0  0  0  0  0  0  0  0  0  0  0
    6.8854    0.0854    1.7906 C   0  0  0  0  0  0  0  0  0  0  0  0
    9.7016   -2.7690    3.0628 C   0  0  0  0  0  0  0  0  0  0  0  0
    9.1266   -2.8549    1.8081 O   0  0  0  0  0  0  0  0  0  0  0  0
    7.6568   -2.0470    0.1664 C   0  0  0  0  0  0  0  0  0  0  0  0
    6.4900    1.1383    2.5654 O   0  0  0  0  0  0  0  0  0  0  0  0
    6.3283   -0.0568    0.5152 C   0  0  0  0  0  0  0  0  0  0  0  0
   10.6749   -3.8387    3.3578 C   0  0  0  0  0  0  0  0  0  0  0  0
    6.7218   -1.1248   -0.2849 C   0  0  0  0  0  0  0  0  0  0  0  0
   10.2483   -5.1731    3.4353 C   0  0  0  0  0  0  0  0  0  0  0  0
   12.0296   -3.5555    3.5919 C   0  0  0  0  0  0  0  0  0  0  0  0
    6.2087   -1.3065   -1.5345 O   0  0  0  0  0  0  0  0  0  0  0  0
   11.1532   -6.1983    3.7225 C   0  0  0  0  0  0  0  0  0  0  0  0
   12.9343   -4.5812    3.8797 C   0  0  0  0  0  0  0  0  0  0  0  0
   12.4960   -5.9018    3.9427 C   0  0  0  0  0  0  0  0  0  0  0  0
    9.9098   -1.7821    4.8588 H   0  0  0  0  0  0  0  0  0  0  0  0
    7.9410   -2.8353   -0.4360 H   0  0  0  0  0  0  0  0  0  0  0  0
    5.7448    1.6490    2.3168 H   0  0  0  0  0  0  0  0  0  0  0  0
    5.6326    0.6236    0.1714 H   0  0  0  0  0  0  0  0  0  0  0  0
    9.2539   -5.4002    3.2783 H   0  0  0  0  0  0  0  0  0  0  0  0
   12.3612   -2.5790    3.5513 H   0  0  0  0  0  0  0  0  0  0  0  0
    6.5310   -1.9991   -2.0772 H   0  0  0  0  0  0  0  0  0  0  0  0
   10.8262   -7.1759    3.7716 H   0  0  0  0  0  0  0  0  0  0  0  0
   13.9285   -4.3598    4.0456 H   0  0  0  0  0  0  0  0  0  0  0  0
   13.1650   -6.6591    4.1522 H   0  0  0  0  0  0  0  0  0  0  0  0
  1  2  2  0  0  0  0
  2  3  1  0  0  0  0
  2  4  1  0  0  0  0
  3  5  2  0  0  0  0
  3  6  1  0  0  0  0
  4  7  2  0  0  0  0
  4 20  1  0  0  0  0
  5  8  1  0  0  0  0
  5  9  1  0  0  0  0
  6 10  1  0  0  0  0
  6 11  2  0  0  0  0
  7 12  1  0  0  0  0
  7  8  1  0  0  0  0
  9 13  2  0  0  0  0
  9 21  1  0  0  0  0
 10 22  1  0  0  0  0
 11 13  1  0  0  0  0
 11 23  1  0  0  0  0
 12 14  2  0  0  0  0
 12 15  1  0  0  0  0
 13 16  1  0  0  0  0
 14 17  1  0  0  0  0
 14 24  1  0  0  0  0
 15 18  2  0  0  0  0
 15 25  1  0  0  0  0
 16 26  1  0  0  0  0
 17 19  2  0  0  0  0
 17 27  1  0  0  0  0
 18 19  1  0  0  0  0
 18 28  1  0  0  0  0
 19 29  1  0  0  0  0
M  END
>  <Code-name>
083

>  <Compound>
Chrysine

>  <Specie>
Pleurotus ostreatus

>  <Reference>
Naz, Saima et al., (2019)

>  <Organism>
Cytotoxic Activity

>  <Smiles>
Oc(cc1O)cc(OC(c2ccccc2)=C2)c1C2=O

>  <MMFF94 Energy>
44.812

>  <Total Molweight>
254.240

>  <Molweight>
254.240

>  <Monoisotopic Mass>
254.057910

>  <cLogP>
2.6814

>  <cLogS>
-3.152

>  <H-Acceptors>
4

>  <H-Donors>
2

>  <Total Surface Area>
184.68

>  <Relative PSA>
0.26662

>  <Polar Surface Area>
66.76

>  <Druglikeness>
0.28194

>  <Mutagenic>
none

>  <Tumorigenic>
none

>  <Reproductive Effective>
none

>  <Irritant>
none

>  <Nasty Functions>


>  <Shape Index>
0.52632

>  <Molecular Flexibility>
0.24066

>  <Molecular Complexity>
0.79548

>  <Fragments>
1

>  <Non-H Atoms>
19

>  <Non-C/H Atoms>
4

>  <Metal-Atoms>
0

>  <Electronegative Atoms>
4

>  <Stereo Centers>
0

>  <Rotatable Bonds>
1

>  <Rings Closures>
3

>  <Small Rings>
3

>  <Aromatic Rings>
2

>  <Aromatic Atoms>
12

>  <sp3-Atoms>
3

>  <Symmetric atoms>
2

>  <Amides>
0

>  <Amines>
0

>  <Alkyl-Amines>
0

>  <Aromatic Amines>
0

>  <Aromatic Nitrogens>
0

>  <Basic Nitrogens>
0

>  <Acidic Oxygens>
0

>  <Stereo Configuration>


> <Gold.Version>
5.8.1

> <Gold.Id.Protein>
ID_2|Prot_COX2_5IKQ_Alig|mol2

> <Gold.Goldscore.Fitness>
53.9766

> <Gold.Goldscore.Internal.Vdw>
-0.5616

> <Gold.Goldscore.Internal.Torsion>
-5.2168

> <Gold.Goldscore.External.Vdw>
40.8465

> <Gold.Goldscore.Internal.HBond>
0.0000

> <Gold.Goldscore.External.HBond>
0.1179

> <Gold.Goldscore.Internal.Correction>
-3.4732

> <Gold.Goldscore.Hbonds>
donor molecule, donor type, donor heavy atom, donor atom, acceptor molecule, acceptor atom, score
      P1  H  5703  5712       L1    10  0.06

> <Gold.Goldscore.Internal.Vdw.Weighted>
-0.5616

> <Gold.Goldscore.Internal.Torsion.Weighted>
-5.2168

> <Gold.Goldscore.External.Vdw.Weighted>
56.1640

> <Gold.Goldscore.Internal.HBond.Weighted>
0.0000

> <Gold.Goldscore.External.HBond.Weighted>
0.1179

> <Gold.Goldscore.Internal.Correction.Weighted>
-3.4732

> <Gold.Protein.RotatedTorsions>
[ 5077 5068 5067 5065 ] final  169.32 input  179.94 | X-H torsion
[ 5157 5152 5151 5148 ] final  107.89 input -179.92 | X-H torsion
[ 5185 5176 5175 5173 ] final   42.96 input -179.99 | X-H torsion
[ 5712 5703 5702 5700 ] final  145.60 input  180.00 | X-H torsion
[ 8036 8031 8030 8027 ] final -146.45 input -179.94 | X-H torsion
[ 2749 2745 2743 2740 ] final   85.07 input  -60.05 | X-H torsion
[ 1366 1361 1360 1357 ] final   13.95 input  -60.09 | X-H torsion
[ 2556 2551 2550 2547 ] final -172.68 input   59.97 | X-H torsion

> <Gold.Protein.ActiveResidues>
 PRO86   VAL89   HIS90   LEU93   THR94   ILE112  MET113  TYR115  VAL116  LEU117 
 THR118  SER119  ARG120  SER121  LEU123  ILE124  GLN192  SER194  PHE198  PHE201 
 ALA202  GLN203  PHE205  THR206  PHE209  PHE210  VAL228  ILE341  ILE343  VAL344 
 ILE345  GLU346  ASP347  TYR348  VAL349  GLN350  HIS351  LEU352  SER353  GLY354 
 TYR355  PHE357  LEU359  LYS360  GLU380  PHE381  ASN382  THR383  LEU384  TYR385 
 HIS386  TRP387  LEU390  VAL434  LEU507  ARG513  ALA516  ILE517  PHE518  GLY519 
 GLU520  THR521  MET522  VAL523  GLU524  VAL525  GLY526  ALA527  PRO528  PHE529 
 SER530  LEU531  LYS532  GLY533  LEU534  MET535  COH609 

> <Gold.Protein.RotatedAtoms>
   17.6558    7.5284    2.2140 H   0  0  0  0  0  0  0  0  0  0  0  0  # atno 1366 bound_to 1361
    4.5571   -9.1176    6.7228 H   0  0  0  0  0  0  0  0  0  0  0  0  # atno 2556 bound_to 2551
   -3.8268    0.1618   -0.0749 H   0  0  0  0  0  0  0  0  0  0  0  0  # atno 2749 bound_to 2745
    1.8220   -1.4803    3.6806 H   0  0  0  0  0  0  0  0  0  0  0  0  # atno 5077 bound_to 5068
   12.9361   -2.1267    9.1631 H   0  0  0  0  0  0  0  0  0  0  0  0  # atno 5157 bound_to 5152
   15.4807   -1.0251    4.6411 H   0  0  0  0  0  0  0  0  0  0  0  0  # atno 5185 bound_to 5176
    3.0030   -0.0692    2.3592 H   0  0  0  0  0  0  0  0  0  0  0  0  # atno 5712 bound_to 5703
    6.1170    4.0150    3.6670 H   0  0  0  0  0  0  0  0  0  0  0  0  # atno 8036 bound_to 8031
    0.4827   -1.9794    4.1483 LP  0  0  0  0  0  0  0  0  0  0  0  0  # atno 8267 bound_to 5068
    1.8199   -2.9165    4.1264 LP  0  0  0  0  0  0  0  0  0  0  0  0  # atno 8268 bound_to 5068
   11.6726   -2.9320    9.3051 LP  0  0  0  0  0  0  0  0  0  0  0  0  # atno 8279 bound_to 5152
   11.6892   -1.2992    9.3233 LP  0  0  0  0  0  0  0  0  0  0  0  0  # atno 8280 bound_to 5152
   16.7617   -0.3119    4.9717 LP  0  0  0  0  0  0  0  0  0  0  0  0  # atno 8281 bound_to 5176
   15.3053    0.4264    4.9890 LP  0  0  0  0  0  0  0  0  0  0  0  0  # atno 8282 bound_to 5176
    2.1631   -1.2315    2.8091 LP  0  0  0  0  0  0  0  0  0  0  0  0  # atno 8283 bound_to 5703
    1.6042    0.3022    2.7642 LP  0  0  0  0  0  0  0  0  0  0  0  0  # atno 8284 bound_to 5703
    4.6846    4.0882    3.2168 LP  0  0  0  0  0  0  0  0  0  0  0  0  # atno 8309 bound_to 8031
    5.5880    5.4144    3.5198 LP  0  0  0  0  0  0  0  0  0  0  0  0  # atno 8310 bound_to 8031
   -3.9316   -0.0228    1.4145 LP  0  0  0  0  0  0  0  0  0  0  0  0  # atno 8323 bound_to 2745
   -2.6962   -0.6238    0.5317 LP  0  0  0  0  0  0  0  0  0  0  0  0  # atno 8324 bound_to 2745
   18.3552    7.4522    3.5441 LP  0  0  0  0  0  0  0  0  0  0  0  0  # atno 8335 bound_to 1361
   18.7219    6.4696    2.2924 LP  0  0  0  0  0  0  0  0  0  0  0  0  # atno 8336 bound_to 1361
    5.2632  -10.3119    7.3052 LP  0  0  0  0  0  0  0  0  0  0  0  0  # atno 8342 bound_to 2551
    4.8155   -9.0228    8.2021 LP  0  0  0  0  0  0  0  0  0  0  0  0  # atno 8343 bound_to 2551

