
089|LMW3_p|sdf|89|dock7
  -GOLD-   6 72218343D 1   1.00000     0.00000

 32 33  0  0  0  0  0  0  0  0  1 V2000
   12.9232   -0.5072    3.9188 O   0  0  0  0  0  0  0  0  0  0  0  0
   12.4962   -1.8068    3.9061 C   0  0  0  0  0  0  0  0  0  0  0  0
   11.9028    0.5004    4.0687 C   0  0  0  0  0  0  0  0  0  0  0  0
   11.1727   -2.1943    3.6835 C   0  0  0  0  0  0  0  0  0  0  0  0
   13.4822   -2.7691    4.1146 C   0  0  0  0  0  0  0  0  0  0  0  0
   10.7063    0.2146    3.1332 C   0  0  1  0  0  0  0  0  0  0  0  0
   12.5653    1.8224    3.6392 C   0  0  0  0  0  0  0  0  0  0  0  0
   11.5293    0.6324    5.5551 C   0  0  0  0  0  0  0  0  0  0  0  0
   10.8411   -3.5621    3.7230 C   0  0  0  0  0  0  0  0  0  0  0  0
   10.1109   -1.1763    3.3971 C   0  0  2  0  0  0  0  0  0  0  0  0
   13.1457   -4.1230    4.1360 C   0  0  0  0  0  0  0  0  0  0  0  0
    9.6746    1.2053    3.2648 O   0  0  0  0  0  0  0  0  0  0  0  0
   11.8230   -4.5277    3.9518 C   0  0  0  0  0  0  0  0  0  0  0  0
    9.1844   -1.1378    4.4859 O   0  0  0  0  0  0  0  0  0  0  0  0
   11.6246   -5.8795    4.0083 O   0  0  0  0  0  0  0  0  0  0  0  0
   10.5534   -6.4030    3.2331 C   0  0  0  0  0  0  0  0  0  0  0  0
   14.4630   -2.4799    4.2534 H   0  0  0  0  0  0  0  0  0  0  0  0
   11.0877    0.2502    2.1341 H   0  0  0  0  0  0  0  0  0  0  0  0
   13.3877    2.0369    4.2891 H   0  0  0  0  0  0  0  0  0  0  0  0
   11.8491    2.6154    3.6966 H   0  0  0  0  0  0  0  0  0  0  0  0
   12.9193    1.7337    2.6334 H   0  0  0  0  0  0  0  0  0  0  0  0
   12.4207    0.7205    6.1404 H   0  0  0  0  0  0  0  0  0  0  0  0
   10.9840   -0.2348    5.8642 H   0  0  0  0  0  0  0  0  0  0  0  0
   10.9235    1.5032    5.6947 H   0  0  0  0  0  0  0  0  0  0  0  0
    9.8616   -3.8540    3.5812 H   0  0  0  0  0  0  0  0  0  0  0  0
    9.5978   -1.4661    2.5040 H   0  0  0  0  0  0  0  0  0  0  0  0
   13.8809   -4.8309    4.2893 H   0  0  0  0  0  0  0  0  0  0  0  0
    8.9653    1.0198    2.6297 H   0  0  0  0  0  0  0  0  0  0  0  0
    8.7899   -2.0157    4.6060 H   0  0  0  0  0  0  0  0  0  0  0  0
   10.6155   -6.0214    2.2354 H   0  0  0  0  0  0  0  0  0  0  0  0
    9.6212   -6.1105    3.6694 H   0  0  0  0  0  0  0  0  0  0  0  0
   10.6176   -7.4708    3.2112 H   0  0  0  0  0  0  0  0  0  0  0  0
  1  2  1  0  0  0  0
  1  3  1  0  0  0  0
  2  4  2  0  0  0  0
  2  5  1  0  0  0  0
  3  6  1  0  0  0  0
  3  7  1  0  0  0  0
  3  8  1  0  0  0  0
  4  9  1  0  0  0  0
  4 10  1  0  0  0  0
  5 11  2  0  0  0  0
  5 17  1  0  0  0  0
  6 12  1  0  0  0  0
  6 10  1  0  0  0  0
  6 18  1  0  0  0  0
  7 19  1  0  0  0  0
  7 20  1  0  0  0  0
  7 21  1  0  0  0  0
  8 22  1  0  0  0  0
  8 23  1  0  0  0  0
  8 24  1  0  0  0  0
  9 13  2  0  0  0  0
  9 25  1  0  0  0  0
 10 14  1  0  0  0  0
 10 26  1  0  0  0  0
 11 13  1  0  0  0  0
 11 27  1  0  0  0  0
 12 28  1  0  0  0  0
 13 15  1  0  0  0  0
 14 29  1  0  0  0  0
 15 16  1  0  0  0  0
 16 30  1  0  0  0  0
 16 31  1  0  0  0  0
 16 32  1  0  0  0  0
M  END
>  <Code-name>
089

>  <Compound>
(3R,4R)-3, 4-dihydroxy-6-methoxy-2,2-dimethylchromom

>  <Specie>
Panus lecomtei

>  <Reference>
Si-Xian (2020)

>  <Organism>
Antibacterial Activity

>  <Smiles>
CC(C)([C@@H]([C@@H]1O)O)Oc(cc2)c1cc2OC

>  <MMFF94 Energy>
70.331

>  <Total Molweight>
224.255

>  <Molweight>
224.255

>  <Monoisotopic Mass>
224.104860

>  <cLogP>
1.202

>  <cLogS>
-1.811

>  <H-Acceptors>
4

>  <H-Donors>
2

>  <Total Surface Area>
164.65

>  <Relative PSA>
0.2806

>  <Polar Surface Area>
58.92

>  <Druglikeness>
-1.9162

>  <Mutagenic>
none

>  <Tumorigenic>
none

>  <Reproductive Effective>
none

>  <Irritant>
none

>  <Nasty Functions>


>  <Shape Index>
0.5625

>  <Molecular Flexibility>
0.22271

>  <Molecular Complexity>
0.79328

>  <Fragments>
1

>  <Non-H Atoms>
16

>  <Non-C/H Atoms>
4

>  <Metal-Atoms>
0

>  <Electronegative Atoms>
4

>  <Stereo Centers>
2

>  <Rotatable Bonds>
1

>  <Rings Closures>
2

>  <Small Rings>
2

>  <Aromatic Rings>
1

>  <Aromatic Atoms>
6

>  <sp3-Atoms>
10

>  <Symmetric atoms>
1

>  <Amides>
0

>  <Amines>
0

>  <Alkyl-Amines>
0

>  <Aromatic Amines>
0

>  <Aromatic Nitrogens>
0

>  <Basic Nitrogens>
0

>  <Acidic Oxygens>
0

>  <Stereo Configuration>
this enantiomer

> <Gold.Version>
5.8.1

> <Gold.Id.Protein>
ID_2|Prot_COX2_5IKQ_Alig|mol2

> <Gold.Goldscore.Fitness>
46.8198

> <Gold.Goldscore.Internal.Vdw>
-3.5855

> <Gold.Goldscore.Internal.Torsion>
-1.0194

> <Gold.Goldscore.External.Vdw>
32.8670

> <Gold.Goldscore.Internal.HBond>
0.0000

> <Gold.Goldscore.External.HBond>
2.0000

> <Gold.Goldscore.Internal.Correction>
-4.2326

> <Gold.Goldscore.Hbonds>
donor molecule, donor type, donor heavy atom, donor atom, acceptor molecule, acceptor atom, score
      P1  H  5176  5185       L1     1  1.00

> <Gold.Goldscore.Internal.Vdw.Weighted>
-3.5855

> <Gold.Goldscore.Internal.Torsion.Weighted>
-1.0194

> <Gold.Goldscore.External.Vdw.Weighted>
45.1921

> <Gold.Goldscore.Internal.HBond.Weighted>
0.0000

> <Gold.Goldscore.External.HBond.Weighted>
2.0000

> <Gold.Goldscore.Internal.Correction.Weighted>
-4.2326

> <Gold.Protein.RotatedTorsions>
[ 5077 5068 5067 5065 ] final   62.03 input  179.94 | X-H torsion
[ 5157 5152 5151 5148 ] final -150.46 input -179.92 | X-H torsion
[ 5185 5176 5175 5173 ] final  101.88 input -179.99 | X-H torsion
[ 5712 5703 5702 5700 ] final  153.11 input  180.00 | X-H torsion
[ 8036 8031 8030 8027 ] final -150.98 input -179.94 | X-H torsion
[ 2749 2745 2743 2740 ] final    6.65 input  -60.05 | X-H torsion
[ 1366 1361 1360 1357 ] final -109.33 input  -60.09 | X-H torsion
[ 2556 2551 2550 2547 ] final   25.24 input   59.97 | X-H torsion

> <Gold.Protein.ActiveResidues>
 PRO86   VAL89   HIS90   LEU93   THR94   ILE112  MET113  TYR115  VAL116  LEU117 
 THR118  SER119  ARG120  SER121  LEU123  ILE124  GLN192  SER194  PHE198  PHE201 
 ALA202  GLN203  PHE205  THR206  PHE209  PHE210  VAL228  ILE341  ILE343  VAL344 
 ILE345  GLU346  ASP347  TYR348  VAL349  GLN350  HIS351  LEU352  SER353  GLY354 
 TYR355  PHE357  LEU359  LYS360  GLU380  PHE381  ASN382  THR383  LEU384  TYR385 
 HIS386  TRP387  LEU390  VAL434  LEU507  ARG513  ALA516  ILE517  PHE518  GLY519 
 GLU520  THR521  MET522  VAL523  GLU524  VAL525  GLY526  ALA527  PRO528  PHE529 
 SER530  LEU531  LYS532  GLY533  LEU534  MET535  COH609 

> <Gold.Protein.RotatedAtoms>
   18.3915    7.4055    3.3881 H   0  0  0  0  0  0  0  0  0  0  0  0  # atno 1366 bound_to 1361
    5.1638  -10.0036    7.8564 H   0  0  0  0  0  0  0  0  0  0  0  0  # atno 2556 bound_to 2551
   -4.1450    0.2226    0.8698 H   0  0  0  0  0  0  0  0  0  0  0  0  # atno 2749 bound_to 2745
    0.6695   -1.8212    4.0956 H   0  0  0  0  0  0  0  0  0  0  0  0  # atno 5077 bound_to 5068
   11.9972   -1.3437    9.2523 H   0  0  0  0  0  0  0  0  0  0  0  0  # atno 5157 bound_to 5152
   15.0443   -0.3964    4.7634 H   0  0  0  0  0  0  0  0  0  0  0  0  # atno 5185 bound_to 5176
    2.9617    0.0253    2.3584 H   0  0  0  0  0  0  0  0  0  0  0  0  # atno 5712 bound_to 5703
    6.0807    3.9658    3.6548 H   0  0  0  0  0  0  0  0  0  0  0  0  # atno 8036 bound_to 8031
    1.6325   -2.9719    4.1938 LP  0  0  0  0  0  0  0  0  0  0  0  0  # atno 8267 bound_to 5068
    2.0502   -1.5159    3.5838 LP  0  0  0  0  0  0  0  0  0  0  0  0  # atno 8268 bound_to 5068
   13.0409   -2.4265    9.1949 LP  0  0  0  0  0  0  0  0  0  0  0  0  # atno 8279 bound_to 5152
   11.4439   -2.7413    9.3268 LP  0  0  0  0  0  0  0  0  0  0  0  0  # atno 8280 bound_to 5152
   16.3680   -1.1043    4.6912 LP  0  0  0  0  0  0  0  0  0  0  0  0  # atno 8281 bound_to 5176
   16.2230    0.4640    5.1226 LP  0  0  0  0  0  0  0  0  0  0  0  0  # atno 8282 bound_to 5176
    2.2812   -1.2477    2.7768 LP  0  0  0  0  0  0  0  0  0  0  0  0  # atno 8283 bound_to 5703
    1.5356    0.2050    2.7974 LP  0  0  0  0  0  0  0  0  0  0  0  0  # atno 8284 bound_to 5703
    4.6584    4.1575    3.2073 LP  0  0  0  0  0  0  0  0  0  0  0  0  # atno 8309 bound_to 8031
    5.6579    5.4042    3.5440 LP  0  0  0  0  0  0  0  0  0  0  0  0  # atno 8310 bound_to 8031
   -2.9088   -0.5832    1.1628 LP  0  0  0  0  0  0  0  0  0  0  0  0  # atno 8323 bound_to 2745
   -3.3379   -0.1363   -0.3481 LP  0  0  0  0  0  0  0  0  0  0  0  0  # atno 8324 bound_to 2745
   18.6921    6.4745    2.2449 LP  0  0  0  0  0  0  0  0  0  0  0  0  # atno 8335 bound_to 1361
   17.5049    7.5943    2.1871 LP  0  0  0  0  0  0  0  0  0  0  0  0  # atno 8336 bound_to 1361
    4.5514   -8.6371    7.7086 LP  0  0  0  0  0  0  0  0  0  0  0  0  # atno 8342 bound_to 2551
    4.8015   -9.6377    6.4425 LP  0  0  0  0  0  0  0  0  0  0  0  0  # atno 8343 bound_to 2551

