
094|LMW3_p|sdf|94|dock1
  -GOLD-   6 72218373D 1   1.00000     0.00000

 18 18  0  0  0  0  0  0  0  0  2 V2000
    9.7711    2.4110    4.5917 O   0  0  0  0  0  0  0  0  0  0  0  0
    8.6714    2.6461    4.1237 C   0  0  0  0  0  0  0  0  0  0  0  0
    7.9337    3.6828    4.5484 O   0  5  0  0  0  0  0  0  0  0  0  0
    8.0340    1.8476    3.0686 C   0  0  0  0  0  0  0  0  0  0  0  0
    8.6341    0.8197    2.4490 C   0  0  0  0  0  0  0  0  0  0  0  0
    7.9961    0.0110    1.4011 C   0  0  0  0  0  0  0  0  0  0  0  0
    7.0044    0.5249    0.5549 C   0  0  0  0  0  0  0  0  0  0  0  0
    8.4332   -1.3058    1.2049 C   0  0  0  0  0  0  0  0  0  0  0  0
    6.4434   -0.2706   -0.4478 C   0  0  0  0  0  0  0  0  0  0  0  0
    7.8718   -2.1010    0.2027 C   0  0  0  0  0  0  0  0  0  0  0  0
    6.8751   -1.5836   -0.6215 C   0  0  0  0  0  0  0  0  0  0  0  0
    7.0710    2.0906    2.7882 H   0  0  0  0  0  0  0  0  0  0  0  0
    9.6002    0.5835    2.7244 H   0  0  0  0  0  0  0  0  0  0  0  0
    6.6856    1.4993    0.6732 H   0  0  0  0  0  0  0  0  0  0  0  0
    9.1773   -1.6920    1.8066 H   0  0  0  0  0  0  0  0  0  0  0  0
    5.7082    0.1154   -1.0606 H   0  0  0  0  0  0  0  0  0  0  0  0
    8.1957   -3.0722    0.0731 H   0  0  0  0  0  0  0  0  0  0  0  0
    6.4573   -2.1719   -1.3594 H   0  0  0  0  0  0  0  0  0  0  0  0
  1  2  2  0  0  0  0
  2  3  1  0  0  0  0
  2  4  1  0  0  0  0
  4  5  2  0  0  0  0
  4 12  1  0  0  0  0
  5  6  1  0  0  0  0
  5 13  1  0  0  0  0
  6  7  2  0  0  0  0
  6  8  1  0  0  0  0
  7  9  1  0  0  0  0
  7 14  1  0  0  0  0
  8 10  2  0  0  0  0
  8 15  1  0  0  0  0
  9 11  2  0  0  0  0
  9 16  1  0  0  0  0
 10 11  1  0  0  0  0
 10 17  1  0  0  0  0
 11 18  1  0  0  0  0
M  CHG  1   3  -1
M  END
>  <Code-name>
094

>  <Compound>
Cinnamic acid

>  <Specie>
Cantharellus cibarius

>  <Reference>
Barros (2009)

>  <Organism>
Antioxidant Activity

>  <Smiles>
OC(/C=C/c1ccccc1)=O

>  <MMFF94 Energy>
-11.093

>  <Total Molweight>
148.161

>  <Molweight>
148.161

>  <Monoisotopic Mass>
148.052430

>  <cLogP>
1.4739

>  <cLogS>
-1.999

>  <H-Acceptors>
2

>  <H-Donors>
1

>  <Total Surface Area>
123.86

>  <Relative PSA>
0.21104

>  <Polar Surface Area>
37.3

>  <Druglikeness>
0.1675

>  <Mutagenic>
none

>  <Tumorigenic>
none

>  <Reproductive Effective>
none

>  <Irritant>
high

>  <Nasty Functions>


>  <Shape Index>
0.72727

>  <Molecular Flexibility>
0.4302

>  <Molecular Complexity>
0.52781

>  <Fragments>
1

>  <Non-H Atoms>
11

>  <Non-C/H Atoms>
2

>  <Metal-Atoms>
0

>  <Electronegative Atoms>
2

>  <Stereo Centers>
0

>  <Rotatable Bonds>
2

>  <Rings Closures>
1

>  <Small Rings>
1

>  <Aromatic Rings>
1

>  <Aromatic Atoms>
6

>  <sp3-Atoms>
1

>  <Symmetric atoms>
2

>  <Amides>
0

>  <Amines>
0

>  <Alkyl-Amines>
0

>  <Aromatic Amines>
0

>  <Aromatic Nitrogens>
0

>  <Basic Nitrogens>
0

>  <Acidic Oxygens>
1

>  <Stereo Configuration>


> <Gold.Version>
5.8.1

> <Gold.Id.Protein>
ID_2|Prot_COX2_5IKQ_Alig|mol2

> <Gold.Goldscore.Fitness>
41.6189

> <Gold.Goldscore.Internal.Vdw>
-0.9934

> <Gold.Goldscore.Internal.Torsion>
-1.3574

> <Gold.Goldscore.External.Vdw>
25.9935

> <Gold.Goldscore.Internal.HBond>
0.0000

> <Gold.Goldscore.External.HBond>
6.0000

> <Gold.Goldscore.Internal.Correction>
-2.2286

> <Gold.Goldscore.Hbonds>
donor molecule, donor type, donor heavy atom, donor atom, acceptor molecule, acceptor atom, score
      P1  H  8031  8036       L1     3  1.00

> <Gold.Goldscore.Internal.Vdw.Weighted>
-0.9934

> <Gold.Goldscore.Internal.Torsion.Weighted>
-1.3574

> <Gold.Goldscore.External.Vdw.Weighted>
35.7411

> <Gold.Goldscore.Internal.HBond.Weighted>
0.0000

> <Gold.Goldscore.External.HBond.Weighted>
6.0000

> <Gold.Goldscore.Internal.Correction.Weighted>
-2.2286

> <Gold.Protein.RotatedTorsions>
[ 5077 5068 5067 5065 ] final  143.17 input  179.94 | X-H torsion
[ 5157 5152 5151 5148 ] final   82.20 input -179.92 | X-H torsion
[ 5185 5176 5175 5173 ] final  -92.17 input -179.99 | X-H torsion
[ 5712 5703 5702 5700 ] final  131.26 input  180.00 | X-H torsion
[ 8036 8031 8030 8027 ] final -124.73 input -179.94 | X-H torsion
[ 2749 2745 2743 2740 ] final -116.21 input  -60.05 | X-H torsion
[ 1366 1361 1360 1357 ] final  137.34 input  -60.09 | X-H torsion
[ 2556 2551 2550 2547 ] final  -75.00 input   59.97 | X-H torsion

> <Gold.Protein.ActiveResidues>
 PRO86   VAL89   HIS90   LEU93   THR94   ILE112  MET113  TYR115  VAL116  LEU117 
 THR118  SER119  ARG120  SER121  LEU123  ILE124  GLN192  SER194  PHE198  PHE201 
 ALA202  GLN203  PHE205  THR206  PHE209  PHE210  VAL228  ILE341  ILE343  VAL344 
 ILE345  GLU346  ASP347  TYR348  VAL349  GLN350  HIS351  LEU352  SER353  GLY354 
 TYR355  PHE357  LEU359  LYS360  GLU380  PHE381  ASN382  THR383  LEU384  TYR385 
 HIS386  TRP387  LEU390  VAL434  LEU507  ARG513  ALA516  ILE517  PHE518  GLY519 
 GLU520  THR521  MET522  VAL523  GLU524  VAL525  GLY526  ALA527  PRO528  PHE529 
 SER530  LEU531  LYS532  GLY533  LEU534  MET535  COH609 

> <Gold.Protein.RotatedAtoms>
   18.6889    6.6103    2.3766 H   0  0  0  0  0  0  0  0  0  0  0  0  # atno 1366 bound_to 1361
    4.6561   -8.9025    7.8891 H   0  0  0  0  0  0  0  0  0  0  0  0  # atno 2556 bound_to 2551
   -2.9642   -0.4850    1.0422 H   0  0  0  0  0  0  0  0  0  0  0  0  # atno 2749 bound_to 2745
    1.4949   -1.3417    3.7172 H   0  0  0  0  0  0  0  0  0  0  0  0  # atno 5077 bound_to 5068
   12.8547   -2.4688    9.1659 H   0  0  0  0  0  0  0  0  0  0  0  0  # atno 5157 bound_to 5152
   16.5607   -0.1335    5.0419 H   0  0  0  0  0  0  0  0  0  0  0  0  # atno 5185 bound_to 5176
    3.0478   -0.2605    2.3721 H   0  0  0  0  0  0  0  0  0  0  0  0  # atno 5712 bound_to 5703
    6.2356    4.2845    3.7061 H   0  0  0  0  0  0  0  0  0  0  0  0  # atno 8036 bound_to 8031
    0.5589   -2.3821    4.2675 LP  0  0  0  0  0  0  0  0  0  0  0  0  # atno 8267 bound_to 5068
    2.1354   -2.6799    3.9633 LP  0  0  0  0  0  0  0  0  0  0  0  0  # atno 8268 bound_to 5068
   11.3694   -2.6435    9.3343 LP  0  0  0  0  0  0  0  0  0  0  0  0  # atno 8279 bound_to 5152
   12.0898   -1.1787    9.2907 LP  0  0  0  0  0  0  0  0  0  0  0  0  # atno 8280 bound_to 5152
   15.1189    0.2726    4.9199 LP  0  0  0  0  0  0  0  0  0  0  0  0  # atno 8281 bound_to 5176
   15.6513   -1.2286    4.5596 LP  0  0  0  0  0  0  0  0  0  0  0  0  # atno 8282 bound_to 5176
    1.9459   -1.1572    2.8625 LP  0  0  0  0  0  0  0  0  0  0  0  0  # atno 8283 bound_to 5703
    1.7676    0.4574    2.6954 LP  0  0  0  0  0  0  0  0  0  0  0  0  # atno 8284 bound_to 5703
    4.8770    3.7973    3.2856 LP  0  0  0  0  0  0  0  0  0  0  0  0  # atno 8309 bound_to 8031
    5.2535    5.3819    3.4042 LP  0  0  0  0  0  0  0  0  0  0  0  0  # atno 8310 bound_to 8031
   -3.3803   -0.1109   -0.3543 LP  0  0  0  0  0  0  0  0  0  0  0  0  # atno 8323 bound_to 2745
   -4.2806    0.2389    0.9624 LP  0  0  0  0  0  0  0  0  0  0  0  0  # atno 8324 bound_to 2745
   17.5292    7.5296    2.1048 LP  0  0  0  0  0  0  0  0  0  0  0  0  # atno 8335 bound_to 1361
   18.3121    7.4905    3.5373 LP  0  0  0  0  0  0  0  0  0  0  0  0  # atno 8336 bound_to 1361
    4.6669   -9.3459    6.4512 LP  0  0  0  0  0  0  0  0  0  0  0  0  # atno 8342 bound_to 2551
    5.2934  -10.2463    7.6609 LP  0  0  0  0  0  0  0  0  0  0  0  0  # atno 8343 bound_to 2551

